<additional>

    <tlLogic id="0" programID="my_program" offset="0" type="actuated">
        <param key="max-gap" value="3.0"/>
        <param key="detector-gap" value="2.0"/>
        <param key="show-detectors" value="false"/>
        <param key="file" value="NULL"/>
        <param key="freq" value="300"/>
        <phase duration="31" minDur="5" maxDur="45" state="grrrgGrrgrrrgGrr"/>
        <phase duration="6" minDur="5" maxDur="45" state="grrrgrrrgrrrgGGr"/>
        <phase duration="6" minDur="5" maxDur="45" state="grrrgGGrgrrrgrrr"/>
        <phase duration="31" minDur="5" maxDur="45" state="grrrgrGrgrrrgrGr"/>

        <phase duration="2" minDur="1" maxDur="10" state="grrrgryrgrrrgryr"/>


        <phase duration="31" minDur="5" maxDur="45" state="gGrrgrrrgGrrgrrr"/>
        <phase duration="6" minDur="5" maxDur="45" state="gGGrgrrrgrrrgrrr"/>
        <phase duration="6" minDur="5" maxDur="45" state="grrrgrrrgGGrgrrr"/>
        <phase duration="31" minDur="5" maxDur="45" state="grGrgrrrgrGrgrrr"/>

        <phase duration="2" minDur="1" maxDur="10" state="gryrgrrrgryrgrrr"/>


    </tlLogic>
    <inductionLoop id="1i_1" lane="1i_1" pos="350" freq="900" file="out.xml"/>
    <inductionLoop id="1i_2" lane="1i_2" pos="350" freq="900" file="out.xml"/>
    <inductionLoop id="2i_1" lane="2i_1" pos="350" freq="900" file="out.xml"/>
    <inductionLoop id="2i_2" lane="2i_2" pos="350" freq="900" file="out.xml"/>
    <inductionLoop id="3i_1" lane="3i_1" pos="350" freq="900" file="out.xml"/>
    <inductionLoop id="3i_2" lane="3i_2" pos="350" freq="900" file="out.xml"/>
    <inductionLoop id="4i_1" lane="4i_1" pos="350" freq="900" file="out.xml"/>
    <inductionLoop id="4i_2" lane="4i_2" pos="350" freq="900" file="out.xml"/>


</additional>