<additional>

    <tlLogic id="0" programID="my_program" offset="0" type="actuated">
        <param key="max-gap" value="3.0"/>
        <param key="detector-gap" value="2.0"/>
        <param key="show-detectors" value="false"/>
        <param key="file" value="NULL"/>
        <param key="freq" value="300"/>
        <phase duration="34" minDur="5" maxDur="51" state="grrrgGrrgrrrgGrr"/>
        <phase duration="4" minDur="4" maxDur="4" state="grrrgGrrgrrrgYrr"/>

        <phase duration="14" minDur="5" maxDur="41" state="grrrgGGrgrrrgrrr"/>
        <phase duration="4" minDur="4" maxDur="4" state="grrrgYGrgrrrgrrr"/>

        <phase duration="7" minDur="5" maxDur="15" state="grrrgrGrgrrrgrGr"/>
        <phase duration="4" minDur="4" maxDur="4" state="grrrgrYrgrrrgrYr"/>

        <phase duration="2" minDur="2" maxDur="2" state="grrrgrrrgrrrgrrr"/>

        <phase duration="21" minDur="5" maxDur="31" state="gGrrgrrrgGrrgrrr"/>
        <phase duration="4" minDur="4" maxDur="4" state="gYrrgrrrgGrrgrrr"/>

        <phase duration="5" minDur="5" maxDur="31" state="grrrgrrrgGGrgrrr"/>
        <phase duration="4" minDur="4" maxDur="4" state="grrrgrrrgYGrgrrr"/>

        <phase duration="9" minDur="5" maxDur="31" state="grGrgrrrgrGrgrrr"/>
        <phase duration="4" minDur="4" maxDur="4" state="grYrgrrrgrYrgrrr"/>

        <phase duration="2" minDur="2" maxDur="2" state="grrrgrrrgrrrgrrr"/>


    </tlLogic>


</additional>