<routes>
    <vType id="SUMO_DEFAULT_TYPE" accel="0.8" decel="4.5" sigma="0.5" length="5" minGap="2" maxSpeed="70"
           color="255,0,0"/>
    <vType id="CAV_TYPE" accel="0.8" decel="4.5" sigma="0.5" length="5" minGap="2" maxSpeed="70" color="176,224,230"/>

    <route id="W2E" edges="51o 1i 2o 52i"/>
    <route id="E2W" edges="52o 2i 1o 51i"/>
    <route id="N2S" edges="54o 4i 3o 53i"/>
    <route id="S2N" edges="53o 3i 4o 54i"/>

    <route id="W2N" edges="51o 1i 4o 54i"/>
    <route id="N2E" edges="54o 4i 2o 52i"/>
    <route id="E2S" edges="52o 2i 3o 53i"/>
    <route id="S2W" edges="53o 3i 1o 51i"/>

    <route id="W2S" edges="51o 1i 3o 53i"/>
    <route id="S2E" edges="53o 3i 2o 52i"/>
    <route id="E2N" edges="52o 2i 4o 54i"/>
    <route id="N2W" edges="54o 4i 1o 51i"/>


    <vehicle id="EW_0" type="CAV_TYPE" route="E2W" depart="0"/>
    <vehicle id="WS_1" type="CAV_TYPE" route="W2S" depart="0"/>
    <vehicle id="NE2" type="SUMO_DEFAULT_TYPE" route="N2E" depart="1"/>
    <vehicle id="NS_3" type="CAV_TYPE" route="N2S" depart="3"/>
    <vehicle id="SN_4" type="CAV_TYPE" route="S2N" depart="5"/>
    <vehicle id="WE_5" type="CAV_TYPE" route="W2E" depart="7"/>
    <vehicle id="EN_6" type="SUMO_DEFAULT_TYPE" route="E2N" depart="7"/>
    <vehicle id="SE_7" type="CAV_TYPE" route="S2E" depart="9"/>
    <vehicle id="EN_8" type="SUMO_DEFAULT_TYPE" route="E2N" depart="9"/>
    <vehicle id="NS_9" type="SUMO_DEFAULT_TYPE" route="N2S" depart="10"/>
    <vehicle id="SW_10" type="SUMO_DEFAULT_TYPE" route="S2W" depart="15"/>
    <vehicle id="EW_11" type="SUMO_DEFAULT_TYPE" route="E2W" depart="18"/>
    <vehicle id="WE_12" type="CAV_TYPE" route="W2E" depart="20"/>
    <vehicle id="WN_13" type="SUMO_DEFAULT_TYPE" route="W2N" depart="21"/>
    <vehicle id="WE_14" type="SUMO_DEFAULT_TYPE" route="W2E" depart="23"/>
    <vehicle id="ES_15" type="CAV_TYPE" route="E2S" depart="23"/>
    <vehicle id="EW_16" type="CAV_TYPE" route="E2W" depart="24"/>
    <vehicle id="EW_17" type="SUMO_DEFAULT_TYPE" route="E2W" depart="25"/>
    <vehicle id="ES_18" type="SUMO_DEFAULT_TYPE" route="E2S" depart="25"/>
    <vehicle id="NW_19" type="CAV_TYPE" route="N2W" depart="26"/>
    <vehicle id="WE_20" type="SUMO_DEFAULT_TYPE" route="W2E" depart="29"/>
    <vehicle id="EW_21" type="CAV_TYPE" route="E2W" depart="31"/>
    <vehicle id="SE_22" type="CAV_TYPE" route="S2E" depart="32"/>
    <vehicle id="WE_23" type="CAV_TYPE" route="W2E" depart="33"/>
    <vehicle id="SW_24" type="SUMO_DEFAULT_TYPE" route="S2W" depart="33"/>
    <vehicle id="NS_25" type="CAV_TYPE" route="N2S" depart="34"/>
    <vehicle id="NS_26" type="CAV_TYPE" route="N2S" depart="36"/>
    <vehicle id="EN_27" type="CAV_TYPE" route="E2N" depart="37"/>
    <vehicle id="SE_28" type="CAV_TYPE" route="S2E" depart="38"/>
    <vehicle id="WN_29" type="CAV_TYPE" route="W2N" depart="39"/>
    <vehicle id="ES_30" type="CAV_TYPE" route="E2S" depart="39"/>
    <vehicle id="SW_31" type="CAV_TYPE" route="S2W" depart="40"/>
    <vehicle id="WN_32" type="CAV_TYPE" route="W2N" depart="41"/>
    <vehicle id="ES_33" type="CAV_TYPE" route="E2S" depart="42"/>
    <vehicle id="SN_34" type="SUMO_DEFAULT_TYPE" route="S2N" depart="46"/>
    <vehicle id="NW_35" type="SUMO_DEFAULT_TYPE" route="N2W" depart="46"/>
    <vehicle id="EW_36" type="CAV_TYPE" route="E2W" depart="50"/>
    <vehicle id="NS_37" type="SUMO_DEFAULT_TYPE" route="N2S" depart="51"/>
    <vehicle id="EW_38" type="SUMO_DEFAULT_TYPE" route="E2W" depart="52"/>
    <vehicle id="SE_39" type="CAV_TYPE" route="S2E" depart="53"/>
    <vehicle id="EW_40" type="CAV_TYPE" route="E2W" depart="58"/>
    <vehicle id="WS_41" type="SUMO_DEFAULT_TYPE" route="W2S" depart="64"/>
    <vehicle id="ES_42" type="SUMO_DEFAULT_TYPE" route="E2S" depart="68"/>
    <vehicle id="EW_43" type="CAV_TYPE" route="E2W" depart="69"/>
    <vehicle id="EN_44" type="SUMO_DEFAULT_TYPE" route="E2N" depart="69"/>
    <vehicle id="EW_45" type="CAV_TYPE" route="E2W" depart="70"/>
    <vehicle id="EW_46" type="SUMO_DEFAULT_TYPE" route="E2W" depart="75"/>
    <vehicle id="SE_47" type="CAV_TYPE" route="S2E" depart="75"/>
    <vehicle id="ES_48" type="SUMO_DEFAULT_TYPE" route="E2S" depart="76"/>
    <vehicle id="WN_49" type="SUMO_DEFAULT_TYPE" route="W2N" depart="80"/>
    <vehicle id="WN_50" type="SUMO_DEFAULT_TYPE" route="W2N" depart="81"/>
    <vehicle id="NW_51" type="SUMO_DEFAULT_TYPE" route="N2W" depart="81"/>
    <vehicle id="SN_52" type="SUMO_DEFAULT_TYPE" route="S2N" depart="82"/>
    <vehicle id="WE_53" type="SUMO_DEFAULT_TYPE" route="W2E" depart="83"/>
    <vehicle id="NS_54" type="CAV_TYPE" route="N2S" depart="84"/>
    <vehicle id="NS_55" type="SUMO_DEFAULT_TYPE" route="N2S" depart="89"/>
    <vehicle id="SE_56" type="SUMO_DEFAULT_TYPE" route="S2E" depart="89"/>
    <vehicle id="NS_57" type="SUMO_DEFAULT_TYPE" route="N2S" depart="90"/>
    <vehicle id="SN_58" type="CAV_TYPE" route="S2N" depart="92"/>
    <vehicle id="NE_59" type="CAV_TYPE" route="N2E" depart="92"/>
    <vehicle id="EN_60" type="SUMO_DEFAULT_TYPE" route="E2N" depart="92"/>
    <vehicle id="SW_61" type="CAV_TYPE" route="S2W" depart="93"/>
    <vehicle id="SN_62" type="CAV_TYPE" route="S2N" depart="94"/>
    <vehicle id="EW_63" type="CAV_TYPE" route="E2W" depart="98"/>
    <vehicle id="EW_64" type="CAV_TYPE" route="E2W" depart="105"/>
    <vehicle id="WE_65" type="CAV_TYPE" route="W2E" depart="109"/>
    <vehicle id="NE_66" type="CAV_TYPE" route="N2E" depart="110"/>
    <vehicle id="NS_67" type="CAV_TYPE" route="N2S" depart="111"/>
    <vehicle id="WS_68" type="CAV_TYPE" route="W2S" depart="111"/>
    <vehicle id="WN_69" type="SUMO_DEFAULT_TYPE" route="W2N" depart="113"/>
    <vehicle id="WE_70" type="CAV_TYPE" route="W2E" depart="115"/>
    <vehicle id="EW_71" type="SUMO_DEFAULT_TYPE" route="E2W" depart="115"/>
    <vehicle id="EW_72" type="CAV_TYPE" route="E2W" depart="117"/>
    <vehicle id="WE_73" type="SUMO_DEFAULT_TYPE" route="W2E" depart="118"/>
    <vehicle id="SN_74" type="CAV_TYPE" route="S2N" depart="119"/>
    <vehicle id="EW_75" type="CAV_TYPE" route="E2W" depart="123"/>
    <vehicle id="WN_76" type="CAV_TYPE" route="W2N" depart="123"/>
    <vehicle id="SW_77" type="CAV_TYPE" route="S2W" depart="127"/>
    <vehicle id="SW_78" type="SUMO_DEFAULT_TYPE" route="S2W" depart="131"/>
    <vehicle id="WE_79" type="CAV_TYPE" route="W2E" depart="132"/>
    <vehicle id="SW_80" type="CAV_TYPE" route="S2W" depart="134"/>
    <vehicle id="WS_81" type="CAV_TYPE" route="W2S" depart="136"/>
    <vehicle id="SE_82" type="SUMO_DEFAULT_TYPE" route="S2E" depart="137"/>
    <vehicle id="NW_83" type="CAV_TYPE" route="N2W" depart="137"/>
    <vehicle id="EW_84" type="CAV_TYPE" route="E2W" depart="141"/>
    <vehicle id="EW_85" type="CAV_TYPE" route="E2W" depart="143"/>
    <vehicle id="NE_86" type="CAV_TYPE" route="N2E" depart="143"/>
    <vehicle id="SE_87" type="CAV_TYPE" route="S2E" depart="145"/>
    <vehicle id="EW_88" type="CAV_TYPE" route="E2W" depart="148"/>
    <vehicle id="SE_89" type="CAV_TYPE" route="S2E" depart="148"/>
    <vehicle id="EW_90" type="SUMO_DEFAULT_TYPE" route="E2W" depart="150"/>
    <vehicle id="WE_91" type="CAV_TYPE" route="W2E" depart="154"/>
    <vehicle id="SE_92" type="CAV_TYPE" route="S2E" depart="155"/>
    <vehicle id="EW_93" type="CAV_TYPE" route="E2W" depart="157"/>
    <vehicle id="SN_94" type="CAV_TYPE" route="S2N" depart="157"/>
    <vehicle id="EW_95" type="SUMO_DEFAULT_TYPE" route="E2W" depart="159"/>
    <vehicle id="EW_96" type="CAV_TYPE" route="E2W" depart="160"/>
    <vehicle id="SE_97" type="SUMO_DEFAULT_TYPE" route="S2E" depart="162"/>
    <vehicle id="WE_98" type="CAV_TYPE" route="W2E" depart="167"/>
    <vehicle id="SE_99" type="CAV_TYPE" route="S2E" depart="167"/>
    <vehicle id="WN_100" type="CAV_TYPE" route="W2N" depart="168"/>
    <vehicle id="NE_101" type="CAV_TYPE" route="N2E" depart="168"/>
    <vehicle id="WS_102" type="SUMO_DEFAULT_TYPE" route="W2S" depart="168"/>
    <vehicle id="EW_103" type="CAV_TYPE" route="E2W" depart="169"/>
    <vehicle id="SE_104" type="CAV_TYPE" route="S2E" depart="170"/>
    <vehicle id="SN_105" type="SUMO_DEFAULT_TYPE" route="S2N" depart="172"/>
    <vehicle id="SW_106" type="CAV_TYPE" route="S2W" depart="174"/>
    <vehicle id="EW_107" type="CAV_TYPE" route="E2W" depart="176"/>
    <vehicle id="EW_108" type="CAV_TYPE" route="E2W" depart="178"/>
    <vehicle id="SN_109" type="CAV_TYPE" route="S2N" depart="178"/>
    <vehicle id="WE_110" type="CAV_TYPE" route="W2E" depart="185"/>
    <vehicle id="NW_111" type="CAV_TYPE" route="N2W" depart="185"/>
    <vehicle id="SW_112" type="CAV_TYPE" route="S2W" depart="188"/>
    <vehicle id="SN_113" type="CAV_TYPE" route="S2N" depart="189"/>
    <vehicle id="WS_114" type="CAV_TYPE" route="W2S" depart="192"/>
    <vehicle id="ES_115" type="SUMO_DEFAULT_TYPE" route="E2S" depart="193"/>
    <vehicle id="EW_116" type="SUMO_DEFAULT_TYPE" route="E2W" depart="195"/>
    <vehicle id="NW_117" type="SUMO_DEFAULT_TYPE" route="N2W" depart="199"/>
    <vehicle id="EW_118" type="SUMO_DEFAULT_TYPE" route="E2W" depart="202"/>
    <vehicle id="EW_119" type="CAV_TYPE" route="E2W" depart="203"/>
    <vehicle id="SW_120" type="CAV_TYPE" route="S2W" depart="203"/>
    <vehicle id="NW_121" type="CAV_TYPE" route="N2W" depart="203"/>
    <vehicle id="EW_122" type="SUMO_DEFAULT_TYPE" route="E2W" depart="205"/>
    <vehicle id="WN_123" type="CAV_TYPE" route="W2N" depart="205"/>
    <vehicle id="EW_124" type="SUMO_DEFAULT_TYPE" route="E2W" depart="206"/>
    <vehicle id="EW_125" type="CAV_TYPE" route="E2W" depart="208"/>
    <vehicle id="SN_126" type="CAV_TYPE" route="S2N" depart="209"/>
    <vehicle id="EW_127" type="CAV_TYPE" route="E2W" depart="210"/>
    <vehicle id="EW_128" type="CAV_TYPE" route="E2W" depart="211"/>
    <vehicle id="NS_129" type="SUMO_DEFAULT_TYPE" route="N2S" depart="213"/>
    <vehicle id="SW_130" type="SUMO_DEFAULT_TYPE" route="S2W" depart="214"/>
    <vehicle id="WE_131" type="CAV_TYPE" route="W2E" depart="217"/>
    <vehicle id="WE_132" type="CAV_TYPE" route="W2E" depart="218"/>
    <vehicle id="ES_133" type="CAV_TYPE" route="E2S" depart="218"/>
    <vehicle id="EW_134" type="SUMO_DEFAULT_TYPE" route="E2W" depart="219"/>
    <vehicle id="NS_135" type="CAV_TYPE" route="N2S" depart="220"/>
    <vehicle id="EW_136" type="CAV_TYPE" route="E2W" depart="221"/>
    <vehicle id="EW_137" type="CAV_TYPE" route="E2W" depart="222"/>
    <vehicle id="SN_138" type="CAV_TYPE" route="S2N" depart="223"/>
    <vehicle id="EN_139" type="SUMO_DEFAULT_TYPE" route="E2N" depart="223"/>
    <vehicle id="WS_140" type="CAV_TYPE" route="W2S" depart="224"/>
    <vehicle id="SN_141" type="CAV_TYPE" route="S2N" depart="225"/>
    <vehicle id="WS_142" type="CAV_TYPE" route="W2S" depart="225"/>
    <vehicle id="NS_143" type="CAV_TYPE" route="N2S" depart="226"/>
    <vehicle id="WS_144" type="SUMO_DEFAULT_TYPE" route="W2S" depart="231"/>
    <vehicle id="SN_145" type="CAV_TYPE" route="S2N" depart="232"/>
    <vehicle id="EW_146" type="CAV_TYPE" route="E2W" depart="235"/>
    <vehicle id="EW_147" type="SUMO_DEFAULT_TYPE" route="E2W" depart="236"/>
    <vehicle id="EN_148" type="CAV_TYPE" route="E2N" depart="236"/>
    <vehicle id="NS_149" type="SUMO_DEFAULT_TYPE" route="N2S" depart="239"/>
    <vehicle id="SN_150" type="CAV_TYPE" route="S2N" depart="240"/>
    <vehicle id="WE_151" type="CAV_TYPE" route="W2E" depart="241"/>
    <vehicle id="EW_152" type="CAV_TYPE" route="E2W" depart="245"/>
    <vehicle id="WE_153" type="CAV_TYPE" route="W2E" depart="248"/>
    <vehicle id="EW_154" type="CAV_TYPE" route="E2W" depart="248"/>
    <vehicle id="SN_155" type="SUMO_DEFAULT_TYPE" route="S2N" depart="248"/>
    <vehicle id="SE_156" type="SUMO_DEFAULT_TYPE" route="S2E" depart="248"/>
    <vehicle id="EW_157" type="CAV_TYPE" route="E2W" depart="251"/>
    <vehicle id="EW_158" type="CAV_TYPE" route="E2W" depart="252"/>
    <vehicle id="EW_159" type="CAV_TYPE" route="E2W" depart="253"/>
    <vehicle id="WS_160" type="SUMO_DEFAULT_TYPE" route="W2S" depart="253"/>
    <vehicle id="EN_161" type="SUMO_DEFAULT_TYPE" route="E2N" depart="253"/>
    <vehicle id="EW_162" type="CAV_TYPE" route="E2W" depart="254"/>
    <vehicle id="SE_163" type="SUMO_DEFAULT_TYPE" route="S2E" depart="257"/>
    <vehicle id="NS_164" type="SUMO_DEFAULT_TYPE" route="N2S" depart="261"/>
    <vehicle id="WN_165" type="CAV_TYPE" route="W2N" depart="262"/>
    <vehicle id="SW_166" type="CAV_TYPE" route="S2W" depart="263"/>
    <vehicle id="ES_167" type="SUMO_DEFAULT_TYPE" route="E2S" depart="266"/>
    <vehicle id="EW_168" type="CAV_TYPE" route="E2W" depart="267"/>
    <vehicle id="SE_169" type="CAV_TYPE" route="S2E" depart="269"/>
    <vehicle id="EW_170" type="CAV_TYPE" route="E2W" depart="270"/>
    <vehicle id="WE_171" type="CAV_TYPE" route="W2E" depart="271"/>
    <vehicle id="ES_172" type="SUMO_DEFAULT_TYPE" route="E2S" depart="271"/>
    <vehicle id="EW_173" type="SUMO_DEFAULT_TYPE" route="E2W" depart="272"/>
    <vehicle id="EW_174" type="SUMO_DEFAULT_TYPE" route="E2W" depart="273"/>
    <vehicle id="ES_175" type="CAV_TYPE" route="E2S" depart="274"/>
    <vehicle id="SN_176" type="CAV_TYPE" route="S2N" depart="276"/>
    <vehicle id="WE_177" type="CAV_TYPE" route="W2E" depart="277"/>
    <vehicle id="SN_178" type="CAV_TYPE" route="S2N" depart="278"/>
    <vehicle id="WE_179" type="CAV_TYPE" route="W2E" depart="279"/>
    <vehicle id="WE_180" type="CAV_TYPE" route="W2E" depart="287"/>
    <vehicle id="NW_181" type="SUMO_DEFAULT_TYPE" route="N2W" depart="287"/>
    <vehicle id="NE_182" type="CAV_TYPE" route="N2E" depart="289"/>
    <vehicle id="EW_183" type="CAV_TYPE" route="E2W" depart="294"/>
    <vehicle id="SW_184" type="SUMO_DEFAULT_TYPE" route="S2W" depart="295"/>
    <vehicle id="NS_185" type="CAV_TYPE" route="N2S" depart="296"/>
    <vehicle id="SW_186" type="SUMO_DEFAULT_TYPE" route="S2W" depart="297"/>
    <vehicle id="SN_187" type="CAV_TYPE" route="S2N" depart="298"/>
    <vehicle id="EW_188" type="CAV_TYPE" route="E2W" depart="301"/>
    <vehicle id="WE_189" type="CAV_TYPE" route="W2E" depart="303"/>
    <vehicle id="ES_190" type="CAV_TYPE" route="E2S" depart="304"/>
    <vehicle id="NS_191" type="CAV_TYPE" route="N2S" depart="306"/>
    <vehicle id="SN_192" type="CAV_TYPE" route="S2N" depart="306"/>
    <vehicle id="SN_193" type="CAV_TYPE" route="S2N" depart="309"/>
    <vehicle id="EW_194" type="SUMO_DEFAULT_TYPE" route="E2W" depart="313"/>
    <vehicle id="NS_195" type="CAV_TYPE" route="N2S" depart="313"/>
    <vehicle id="ES_196" type="CAV_TYPE" route="E2S" depart="313"/>
    <vehicle id="SW_197" type="CAV_TYPE" route="S2W" depart="313"/>
    <vehicle id="WE_198" type="SUMO_DEFAULT_TYPE" route="W2E" depart="314"/>
    <vehicle id="ES_199" type="SUMO_DEFAULT_TYPE" route="E2S" depart="316"/>
    <vehicle id="ES_200" type="CAV_TYPE" route="E2S" depart="317"/>
    <vehicle id="WN_201" type="CAV_TYPE" route="W2N" depart="319"/>
    <vehicle id="NE_202" type="CAV_TYPE" route="N2E" depart="322"/>
    <vehicle id="WE_203" type="CAV_TYPE" route="W2E" depart="323"/>
    <vehicle id="NS_204" type="CAV_TYPE" route="N2S" depart="324"/>
    <vehicle id="ES_205" type="CAV_TYPE" route="E2S" depart="324"/>
    <vehicle id="SW_206" type="CAV_TYPE" route="S2W" depart="324"/>
    <vehicle id="SN_207" type="CAV_TYPE" route="S2N" depart="325"/>
    <vehicle id="WE_208" type="CAV_TYPE" route="W2E" depart="328"/>
    <vehicle id="SW_209" type="SUMO_DEFAULT_TYPE" route="S2W" depart="328"/>
    <vehicle id="EW_210" type="CAV_TYPE" route="E2W" depart="331"/>
    <vehicle id="EW_211" type="SUMO_DEFAULT_TYPE" route="E2W" depart="332"/>
    <vehicle id="WE_212" type="CAV_TYPE" route="W2E" depart="333"/>
    <vehicle id="EW_213" type="SUMO_DEFAULT_TYPE" route="E2W" depart="335"/>
    <vehicle id="NS_214" type="CAV_TYPE" route="N2S" depart="337"/>
    <vehicle id="EW_215" type="CAV_TYPE" route="E2W" depart="339"/>
    <vehicle id="SN_216" type="SUMO_DEFAULT_TYPE" route="S2N" depart="340"/>
    <vehicle id="EW_217" type="CAV_TYPE" route="E2W" depart="341"/>
    <vehicle id="NS_218" type="CAV_TYPE" route="N2S" depart="342"/>
    <vehicle id="SN_219" type="SUMO_DEFAULT_TYPE" route="S2N" depart="344"/>
    <vehicle id="SW_220" type="SUMO_DEFAULT_TYPE" route="S2W" depart="344"/>
    <vehicle id="EN_221" type="CAV_TYPE" route="E2N" depart="344"/>
    <vehicle id="EW_222" type="CAV_TYPE" route="E2W" depart="345"/>
    <vehicle id="WN_223" type="CAV_TYPE" route="W2N" depart="347"/>
    <vehicle id="EW_224" type="CAV_TYPE" route="E2W" depart="349"/>
    <vehicle id="WE_225" type="CAV_TYPE" route="W2E" depart="350"/>
    <vehicle id="EW_226" type="CAV_TYPE" route="E2W" depart="352"/>
    <vehicle id="EW_227" type="CAV_TYPE" route="E2W" depart="353"/>
    <vehicle id="SE_228" type="CAV_TYPE" route="S2E" depart="355"/>
    <vehicle id="WE_229" type="SUMO_DEFAULT_TYPE" route="W2E" depart="356"/>
    <vehicle id="EW_230" type="CAV_TYPE" route="E2W" depart="357"/>
    <vehicle id="NS_231" type="SUMO_DEFAULT_TYPE" route="N2S" depart="357"/>
    <vehicle id="SW_232" type="CAV_TYPE" route="S2W" depart="359"/>
    <vehicle id="WE_233" type="SUMO_DEFAULT_TYPE" route="W2E" depart="364"/>
    <vehicle id="SW_234" type="CAV_TYPE" route="S2W" depart="364"/>
    <vehicle id="EW_235" type="CAV_TYPE" route="E2W" depart="365"/>
    <vehicle id="NS_236" type="SUMO_DEFAULT_TYPE" route="N2S" depart="367"/>
    <vehicle id="WE_237" type="SUMO_DEFAULT_TYPE" route="W2E" depart="370"/>
    <vehicle id="SE_238" type="CAV_TYPE" route="S2E" depart="370"/>
    <vehicle id="SN_239" type="SUMO_DEFAULT_TYPE" route="S2N" depart="371"/>
    <vehicle id="NS_240" type="CAV_TYPE" route="N2S" depart="372"/>
    <vehicle id="NE_241" type="CAV_TYPE" route="N2E" depart="372"/>
    <vehicle id="NS_242" type="CAV_TYPE" route="N2S" depart="373"/>
    <vehicle id="NW_243" type="CAV_TYPE" route="N2W" depart="373"/>
    <vehicle id="WN_244" type="SUMO_DEFAULT_TYPE" route="W2N" depart="374"/>
    <vehicle id="NE_245" type="CAV_TYPE" route="N2E" depart="375"/>
    <vehicle id="SE_246" type="CAV_TYPE" route="S2E" depart="376"/>
    <vehicle id="EW_247" type="SUMO_DEFAULT_TYPE" route="E2W" depart="379"/>
    <vehicle id="ES_248" type="CAV_TYPE" route="E2S" depart="382"/>
    <vehicle id="WS_249" type="SUMO_DEFAULT_TYPE" route="W2S" depart="383"/>
    <vehicle id="WS_250" type="SUMO_DEFAULT_TYPE" route="W2S" depart="384"/>
    <vehicle id="SN_251" type="CAV_TYPE" route="S2N" depart="385"/>
    <vehicle id="NE252" type="SUMO_DEFAULT_TYPE" route="N2E" depart="390"/>
    <vehicle id="WS_253" type="SUMO_DEFAULT_TYPE" route="W2S" depart="391"/>
    <vehicle id="EW_254" type="CAV_TYPE" route="E2W" depart="392"/>
    <vehicle id="NS_255" type="CAV_TYPE" route="N2S" depart="396"/>
    <vehicle id="WE_256" type="CAV_TYPE" route="W2E" depart="397"/>
    <vehicle id="ES_257" type="CAV_TYPE" route="E2S" depart="397"/>
    <vehicle id="NS_258" type="SUMO_DEFAULT_TYPE" route="N2S" depart="400"/>
    <vehicle id="WE_259" type="CAV_TYPE" route="W2E" depart="401"/>
    <vehicle id="WE_260" type="CAV_TYPE" route="W2E" depart="402"/>
    <vehicle id="NE261" type="SUMO_DEFAULT_TYPE" route="N2E" depart="403"/>
    <vehicle id="EW_262" type="CAV_TYPE" route="E2W" depart="405"/>
    <vehicle id="EW_263" type="SUMO_DEFAULT_TYPE" route="E2W" depart="410"/>
    <vehicle id="WS_264" type="CAV_TYPE" route="W2S" depart="413"/>
    <vehicle id="WE_265" type="SUMO_DEFAULT_TYPE" route="W2E" depart="415"/>
    <vehicle id="EW_266" type="SUMO_DEFAULT_TYPE" route="E2W" depart="417"/>
    <vehicle id="NE267" type="SUMO_DEFAULT_TYPE" route="N2E" depart="417"/>
    <vehicle id="SN_268" type="SUMO_DEFAULT_TYPE" route="S2N" depart="422"/>
    <vehicle id="EN_269" type="CAV_TYPE" route="E2N" depart="423"/>
    <vehicle id="EW_270" type="CAV_TYPE" route="E2W" depart="424"/>
    <vehicle id="EW_271" type="CAV_TYPE" route="E2W" depart="426"/>
    <vehicle id="NW_272" type="SUMO_DEFAULT_TYPE" route="N2W" depart="426"/>
    <vehicle id="EW_273" type="CAV_TYPE" route="E2W" depart="428"/>
    <vehicle id="NS_274" type="CAV_TYPE" route="N2S" depart="429"/>
    <vehicle id="WS_275" type="CAV_TYPE" route="W2S" depart="429"/>
    <vehicle id="SN_276" type="SUMO_DEFAULT_TYPE" route="S2N" depart="432"/>
    <vehicle id="SN_277" type="SUMO_DEFAULT_TYPE" route="S2N" depart="435"/>
    <vehicle id="EW_278" type="CAV_TYPE" route="E2W" depart="436"/>
    <vehicle id="WS_279" type="CAV_TYPE" route="W2S" depart="436"/>
    <vehicle id="WS_280" type="CAV_TYPE" route="W2S" depart="438"/>
    <vehicle id="EW_281" type="CAV_TYPE" route="E2W" depart="440"/>
    <vehicle id="SE_282" type="CAV_TYPE" route="S2E" depart="442"/>
    <vehicle id="EW_283" type="CAV_TYPE" route="E2W" depart="443"/>
    <vehicle id="NS_284" type="CAV_TYPE" route="N2S" depart="443"/>
    <vehicle id="NW_285" type="CAV_TYPE" route="N2W" depart="444"/>
    <vehicle id="WE_286" type="SUMO_DEFAULT_TYPE" route="W2E" depart="447"/>
    <vehicle id="WN_287" type="SUMO_DEFAULT_TYPE" route="W2N" depart="452"/>
    <vehicle id="WS_288" type="CAV_TYPE" route="W2S" depart="452"/>
    <vehicle id="SN_289" type="SUMO_DEFAULT_TYPE" route="S2N" depart="453"/>
    <vehicle id="NS_290" type="CAV_TYPE" route="N2S" depart="454"/>
    <vehicle id="NS_291" type="CAV_TYPE" route="N2S" depart="455"/>
    <vehicle id="NS_292" type="CAV_TYPE" route="N2S" depart="458"/>
    <vehicle id="SN_293" type="SUMO_DEFAULT_TYPE" route="S2N" depart="459"/>
    <vehicle id="WE_294" type="SUMO_DEFAULT_TYPE" route="W2E" depart="461"/>
    <vehicle id="EW_295" type="SUMO_DEFAULT_TYPE" route="E2W" depart="462"/>
    <vehicle id="SW_296" type="CAV_TYPE" route="S2W" depart="462"/>
    <vehicle id="SW_297" type="CAV_TYPE" route="S2W" depart="463"/>
    <vehicle id="WE_298" type="CAV_TYPE" route="W2E" depart="464"/>
    <vehicle id="WE_299" type="SUMO_DEFAULT_TYPE" route="W2E" depart="465"/>
    <vehicle id="NE_300" type="CAV_TYPE" route="N2E" depart="467"/>
    <vehicle id="SW_301" type="SUMO_DEFAULT_TYPE" route="S2W" depart="471"/>
    <vehicle id="WE_302" type="CAV_TYPE" route="W2E" depart="472"/>
    <vehicle id="NS_303" type="SUMO_DEFAULT_TYPE" route="N2S" depart="473"/>
    <vehicle id="EW_304" type="CAV_TYPE" route="E2W" depart="474"/>
    <vehicle id="EW_305" type="CAV_TYPE" route="E2W" depart="476"/>
    <vehicle id="SN_306" type="CAV_TYPE" route="S2N" depart="476"/>
    <vehicle id="SE_307" type="SUMO_DEFAULT_TYPE" route="S2E" depart="478"/>
    <vehicle id="NS_308" type="CAV_TYPE" route="N2S" depart="480"/>
    <vehicle id="EW_309" type="SUMO_DEFAULT_TYPE" route="E2W" depart="481"/>
    <vehicle id="WE_310" type="CAV_TYPE" route="W2E" depart="482"/>
    <vehicle id="SN_311" type="CAV_TYPE" route="S2N" depart="484"/>
    <vehicle id="NS_312" type="SUMO_DEFAULT_TYPE" route="N2S" depart="485"/>
    <vehicle id="ES_313" type="CAV_TYPE" route="E2S" depart="490"/>
    <vehicle id="WE_314" type="CAV_TYPE" route="W2E" depart="491"/>
    <vehicle id="NW_315" type="CAV_TYPE" route="N2W" depart="492"/>
    <vehicle id="SN_316" type="SUMO_DEFAULT_TYPE" route="S2N" depart="493"/>
    <vehicle id="NS_317" type="CAV_TYPE" route="N2S" depart="494"/>
    <vehicle id="WN_318" type="CAV_TYPE" route="W2N" depart="494"/>
    <vehicle id="EW_319" type="SUMO_DEFAULT_TYPE" route="E2W" depart="497"/>
    <vehicle id="WS_320" type="SUMO_DEFAULT_TYPE" route="W2S" depart="498"/>
    <vehicle id="EW_321" type="CAV_TYPE" route="E2W" depart="500"/>
    <vehicle id="WS_322" type="SUMO_DEFAULT_TYPE" route="W2S" depart="502"/>
    <vehicle id="WS_323" type="SUMO_DEFAULT_TYPE" route="W2S" depart="506"/>
    <vehicle id="SN_324" type="SUMO_DEFAULT_TYPE" route="S2N" depart="509"/>
    <vehicle id="WS_325" type="CAV_TYPE" route="W2S" depart="510"/>
    <vehicle id="NW_326" type="CAV_TYPE" route="N2W" depart="516"/>
    <vehicle id="SW_327" type="CAV_TYPE" route="S2W" depart="521"/>
    <vehicle id="SE_328" type="CAV_TYPE" route="S2E" depart="521"/>
    <vehicle id="NS_329" type="CAV_TYPE" route="N2S" depart="522"/>
    <vehicle id="NS_330" type="CAV_TYPE" route="N2S" depart="524"/>
    <vehicle id="SN_331" type="SUMO_DEFAULT_TYPE" route="S2N" depart="525"/>
    <vehicle id="WE_332" type="CAV_TYPE" route="W2E" depart="526"/>
    <vehicle id="NS_333" type="CAV_TYPE" route="N2S" depart="526"/>
    <vehicle id="WE_334" type="CAV_TYPE" route="W2E" depart="529"/>
    <vehicle id="EW_335" type="SUMO_DEFAULT_TYPE" route="E2W" depart="530"/>
    <vehicle id="SW_336" type="CAV_TYPE" route="S2W" depart="530"/>
    <vehicle id="NS_337" type="CAV_TYPE" route="N2S" depart="533"/>
    <vehicle id="ES_338" type="CAV_TYPE" route="E2S" depart="534"/>
    <vehicle id="SW_339" type="SUMO_DEFAULT_TYPE" route="S2W" depart="534"/>
    <vehicle id="SW_340" type="CAV_TYPE" route="S2W" depart="535"/>
    <vehicle id="ES_341" type="CAV_TYPE" route="E2S" depart="536"/>
    <vehicle id="EW_342" type="SUMO_DEFAULT_TYPE" route="E2W" depart="538"/>
    <vehicle id="WS_343" type="CAV_TYPE" route="W2S" depart="538"/>
    <vehicle id="NE344" type="SUMO_DEFAULT_TYPE" route="N2E" depart="541"/>
    <vehicle id="SW_345" type="SUMO_DEFAULT_TYPE" route="S2W" depart="542"/>
    <vehicle id="WE_346" type="CAV_TYPE" route="W2E" depart="544"/>
    <vehicle id="EW_347" type="CAV_TYPE" route="E2W" depart="547"/>
    <vehicle id="NS_348" type="SUMO_DEFAULT_TYPE" route="N2S" depart="547"/>
    <vehicle id="EW_349" type="CAV_TYPE" route="E2W" depart="548"/>
    <vehicle id="WE_350" type="CAV_TYPE" route="W2E" depart="549"/>
    <vehicle id="SN_351" type="CAV_TYPE" route="S2N" depart="550"/>
    <vehicle id="EW_352" type="CAV_TYPE" route="E2W" depart="551"/>
    <vehicle id="EW_353" type="CAV_TYPE" route="E2W" depart="552"/>
    <vehicle id="EW_354" type="SUMO_DEFAULT_TYPE" route="E2W" depart="558"/>
    <vehicle id="NE355" type="SUMO_DEFAULT_TYPE" route="N2E" depart="562"/>
    <vehicle id="EW_356" type="SUMO_DEFAULT_TYPE" route="E2W" depart="563"/>
    <vehicle id="NS_357" type="CAV_TYPE" route="N2S" depart="563"/>
    <vehicle id="ES_358" type="CAV_TYPE" route="E2S" depart="564"/>
    <vehicle id="EW_359" type="CAV_TYPE" route="E2W" depart="565"/>
    <vehicle id="EN_360" type="CAV_TYPE" route="E2N" depart="567"/>
    <vehicle id="NS_361" type="SUMO_DEFAULT_TYPE" route="N2S" depart="568"/>
    <vehicle id="EN_362" type="CAV_TYPE" route="E2N" depart="570"/>
    <vehicle id="WE_363" type="CAV_TYPE" route="W2E" depart="571"/>
    <vehicle id="NW_364" type="SUMO_DEFAULT_TYPE" route="N2W" depart="571"/>
    <vehicle id="SE_365" type="CAV_TYPE" route="S2E" depart="572"/>
    <vehicle id="EW_366" type="CAV_TYPE" route="E2W" depart="573"/>
    <vehicle id="NS_367" type="CAV_TYPE" route="N2S" depart="575"/>
    <vehicle id="SN_368" type="CAV_TYPE" route="S2N" depart="575"/>
    <vehicle id="SW_369" type="SUMO_DEFAULT_TYPE" route="S2W" depart="576"/>
    <vehicle id="WS_370" type="CAV_TYPE" route="W2S" depart="577"/>
    <vehicle id="NW_371" type="SUMO_DEFAULT_TYPE" route="N2W" depart="577"/>
    <vehicle id="NS_372" type="CAV_TYPE" route="N2S" depart="578"/>
    <vehicle id="EW_373" type="CAV_TYPE" route="E2W" depart="579"/>
    <vehicle id="SN_374" type="CAV_TYPE" route="S2N" depart="579"/>
    <vehicle id="WE_375" type="CAV_TYPE" route="W2E" depart="580"/>
    <vehicle id="SN_376" type="CAV_TYPE" route="S2N" depart="580"/>
    <vehicle id="EW_377" type="SUMO_DEFAULT_TYPE" route="E2W" depart="581"/>
    <vehicle id="NE_378" type="CAV_TYPE" route="N2E" depart="581"/>
    <vehicle id="WN_379" type="CAV_TYPE" route="W2N" depart="584"/>
    <vehicle id="EW_380" type="CAV_TYPE" route="E2W" depart="586"/>
    <vehicle id="SN_381" type="CAV_TYPE" route="S2N" depart="586"/>
    <vehicle id="WN_382" type="CAV_TYPE" route="W2N" depart="586"/>
    <vehicle id="WE_383" type="CAV_TYPE" route="W2E" depart="588"/>
    <vehicle id="EW_384" type="SUMO_DEFAULT_TYPE" route="E2W" depart="588"/>
    <vehicle id="ES_385" type="SUMO_DEFAULT_TYPE" route="E2S" depart="588"/>
    <vehicle id="WS_386" type="CAV_TYPE" route="W2S" depart="588"/>
    <vehicle id="NS_387" type="SUMO_DEFAULT_TYPE" route="N2S" depart="591"/>
    <vehicle id="SN_388" type="CAV_TYPE" route="S2N" depart="593"/>
    <vehicle id="EW_389" type="CAV_TYPE" route="E2W" depart="594"/>
    <vehicle id="WE_390" type="CAV_TYPE" route="W2E" depart="596"/>
    <vehicle id="NS_391" type="CAV_TYPE" route="N2S" depart="597"/>
    <vehicle id="EN_392" type="SUMO_DEFAULT_TYPE" route="E2N" depart="599"/>
    <vehicle id="SW_393" type="SUMO_DEFAULT_TYPE" route="S2W" depart="600"/>
    <vehicle id="EW_394" type="CAV_TYPE" route="E2W" depart="602"/>
    <vehicle id="SN_395" type="CAV_TYPE" route="S2N" depart="602"/>
    <vehicle id="WE_396" type="CAV_TYPE" route="W2E" depart="603"/>
    <vehicle id="EW_397" type="SUMO_DEFAULT_TYPE" route="E2W" depart="603"/>
    <vehicle id="SE_398" type="CAV_TYPE" route="S2E" depart="604"/>
    <vehicle id="NS_399" type="CAV_TYPE" route="N2S" depart="608"/>
    <vehicle id="WN_400" type="CAV_TYPE" route="W2N" depart="609"/>
    <vehicle id="EW_401" type="SUMO_DEFAULT_TYPE" route="E2W" depart="610"/>
    <vehicle id="WN_402" type="CAV_TYPE" route="W2N" depart="610"/>
    <vehicle id="NS_403" type="CAV_TYPE" route="N2S" depart="611"/>
    <vehicle id="WE_404" type="CAV_TYPE" route="W2E" depart="612"/>
    <vehicle id="NS_405" type="CAV_TYPE" route="N2S" depart="615"/>
    <vehicle id="SN_406" type="CAV_TYPE" route="S2N" depart="618"/>
    <vehicle id="SW_407" type="SUMO_DEFAULT_TYPE" route="S2W" depart="618"/>
    <vehicle id="SW_408" type="SUMO_DEFAULT_TYPE" route="S2W" depart="619"/>
    <vehicle id="WS_409" type="SUMO_DEFAULT_TYPE" route="W2S" depart="620"/>
    <vehicle id="NE_410" type="CAV_TYPE" route="N2E" depart="623"/>
    <vehicle id="EN_411" type="CAV_TYPE" route="E2N" depart="624"/>
    <vehicle id="SE_412" type="SUMO_DEFAULT_TYPE" route="S2E" depart="625"/>