<routes>
    <vType id="SUMO_DEFAULT_TYPE" accel="0.8" decel="4.5" sigma="0" length="5" minGap="2" maxSpeed="70"/>

    <route id="W2E" edges="51o 1i 2o 52i"/>
    <route id="E2W" edges="52o 2i 1o 51i"/>
    <route id="N2S" edges="54o 4i 3o 53i"/>
    <route id="S2N" edges="53o 3i 4o 54i"/>

    <route id="W2N" edges="51o 1i 4o 54i"/>
    <route id="N2E" edges="54o 4i 2o 52i"/>
    <route id="E2S" edges="52o 2i 3o 53i"/>
    <route id="S2W" edges="53o 3i 1o 51i"/>

    <route id="W2S" edges="51o 1i 3o 53i"/>
    <route id="S2E" edges="53o 3i 2o 52i"/>
    <route id="E2N" edges="52o 2i 4o 54i"/>
    <route id="N2W" edges="54o 4i 1o 51i"/>


    <vehicle id="right_0" type="SUMO_DEFAULT_TYPE" route="W2E" depart="0"/>
    <vehicle id="right_1" type="SUMO_DEFAULT_TYPE" route="W2E" depart="1"/>
    <vehicle id="left_2" type="SUMO_DEFAULT_TYPE" route="E2W" depart="1"/>
    <vehicle id="left_3" type="SUMO_DEFAULT_TYPE" route="E2W" depart="2"/>
    <vehicle id="right_4" type="SUMO_DEFAULT_TYPE" route="W2E" depart="3"/>
    <vehicle id="right_5" type="SUMO_DEFAULT_TYPE" route="W2E" depart="5"/>
    <vehicle id="right_6" type="SUMO_DEFAULT_TYPE" route="W2E" depart="6"/>
    <vehicle id="left_7" type="SUMO_DEFAULT_TYPE" route="E2W" depart="6"/>
    <vehicle id="right_8" type="SUMO_DEFAULT_TYPE" route="W2E" depart="7"/>
    <vehicle id="right_9" type="SUMO_DEFAULT_TYPE" route="W2E" depart="9"/>
    <vehicle id="downLT_10" type="SUMO_DEFAULT_TYPE" route="E2S" depart="9" color="1,0,0"/>
    <vehicle id="right_11" type="SUMO_DEFAULT_TYPE" route="W2E" depart="11"/>
    <vehicle id="left_12" type="SUMO_DEFAULT_TYPE" route="E2W" depart="12"/>
    <vehicle id="left_13" type="SUMO_DEFAULT_TYPE" route="E2W" depart="14"/>
    <vehicle id="right_14" type="SUMO_DEFAULT_TYPE" route="W2E" depart="15"/>
    <vehicle id="left_15" type="SUMO_DEFAULT_TYPE" route="E2W" depart="15"/>
    <vehicle id="right_16" type="SUMO_DEFAULT_TYPE" route="W2E" depart="16"/>
    <vehicle id="right_17" type="SUMO_DEFAULT_TYPE" route="W2E" depart="19"/>
    <vehicle id="rightLT_18" type="SUMO_DEFAULT_TYPE" route="W2N" depart="19" color="1,0,0"/>
    <vehicle id="left_19" type="SUMO_DEFAULT_TYPE" route="E2W" depart="20"/>
    <vehicle id="left_20" type="SUMO_DEFAULT_TYPE" route="E2W" depart="22"/>
    <vehicle id="right_21" type="SUMO_DEFAULT_TYPE" route="W2E" depart="25"/>
    <vehicle id="left_22" type="SUMO_DEFAULT_TYPE" route="E2W" depart="26"/>
    <vehicle id="left_23" type="SUMO_DEFAULT_TYPE" route="E2W" depart="27"/>
    <vehicle id="downLT_24" type="SUMO_DEFAULT_TYPE" route="E2S" depart="27" color="1,0,0"/>
    <vehicle id="right_25" type="SUMO_DEFAULT_TYPE" route="W2E" depart="28"/>
    <vehicle id="left_26" type="SUMO_DEFAULT_TYPE" route="E2W" depart="29"/>
    <vehicle id="rightLT_27" type="SUMO_DEFAULT_TYPE" route="W2N" depart="30" color="1,0,0"/>
    <vehicle id="leftLT_28" type="SUMO_DEFAULT_TYPE" route="N2E" depart="30" color="1,0,0"/>
    <vehicle id="leftLT_29" type="SUMO_DEFAULT_TYPE" route="N2E" depart="31" color="1,0,0"/>
    <vehicle id="right_30" type="SUMO_DEFAULT_TYPE" route="W2E" depart="32"/>
    <vehicle id="downLT_31" type="SUMO_DEFAULT_TYPE" route="E2S" depart="33" color="1,0,0"/>
    <vehicle id="right_32" type="SUMO_DEFAULT_TYPE" route="W2E" depart="35"/>
    <vehicle id="left_33" type="SUMO_DEFAULT_TYPE" route="E2W" depart="37"/>
    <vehicle id="downLT_34" type="SUMO_DEFAULT_TYPE" route="E2S" depart="37" color="1,0,0"/>
    <vehicle id="right_35" type="SUMO_DEFAULT_TYPE" route="W2E" depart="39"/>
    <vehicle id="right_36" type="SUMO_DEFAULT_TYPE" route="W2E" depart="40"/>
    <vehicle id="left_37" type="SUMO_DEFAULT_TYPE" route="E2W" depart="41"/>
    <vehicle id="leftLT_38" type="SUMO_DEFAULT_TYPE" route="N2E" depart="43" color="1,0,0"/>
    <vehicle id="right_39" type="SUMO_DEFAULT_TYPE" route="W2E" depart="44"/>
    <vehicle id="left_40" type="SUMO_DEFAULT_TYPE" route="E2W" depart="44"/>
    <vehicle id="leftLT_41" type="SUMO_DEFAULT_TYPE" route="N2E" depart="45" color="1,0,0"/>
    <vehicle id="right_42" type="SUMO_DEFAULT_TYPE" route="W2E" depart="46"/>
    <vehicle id="left_43" type="SUMO_DEFAULT_TYPE" route="E2W" depart="46"/>
    <vehicle id="leftLT_44" type="SUMO_DEFAULT_TYPE" route="N2E" depart="46" color="1,0,0"/>
    <vehicle id="right_45" type="SUMO_DEFAULT_TYPE" route="W2E" depart="47"/>
    <vehicle id="left_46" type="SUMO_DEFAULT_TYPE" route="E2W" depart="48"/>
    <vehicle id="left_47" type="SUMO_DEFAULT_TYPE" route="E2W" depart="49"/>
    <vehicle id="left_48" type="SUMO_DEFAULT_TYPE" route="E2W" depart="51"/>
    <vehicle id="downLT_49" type="SUMO_DEFAULT_TYPE" route="E2S" depart="51" color="1,0,0"/>
    <vehicle id="left_50" type="SUMO_DEFAULT_TYPE" route="E2W" depart="52"/>
    <vehicle id="right_51" type="SUMO_DEFAULT_TYPE" route="W2E" depart="54"/>
    <vehicle id="left_52" type="SUMO_DEFAULT_TYPE" route="E2W" depart="54"/>
    <vehicle id="down_53" type="SUMO_DEFAULT_TYPE" route="N2S" depart="54"/>
    <vehicle id="right_54" type="SUMO_DEFAULT_TYPE" route="W2E" depart="55"/>
    <vehicle id="left_55" type="SUMO_DEFAULT_TYPE" route="E2W" depart="55"/>
    <vehicle id="left_56" type="SUMO_DEFAULT_TYPE" route="E2W" depart="57"/>
    <vehicle id="right_57" type="SUMO_DEFAULT_TYPE" route="W2E" depart="64"/>
    <vehicle id="left_58" type="SUMO_DEFAULT_TYPE" route="E2W" depart="64"/>
    <vehicle id="right_59" type="SUMO_DEFAULT_TYPE" route="W2E" depart="65"/>
    <vehicle id="right_60" type="SUMO_DEFAULT_TYPE" route="W2E" depart="66"/>
    <vehicle id="left_61" type="SUMO_DEFAULT_TYPE" route="E2W" depart="66"/>
    <vehicle id="upLT_62" type="SUMO_DEFAULT_TYPE" route="S2W" depart="69" color="1,0,0"/>
    <vehicle id="right_63" type="SUMO_DEFAULT_TYPE" route="W2E" depart="72"/>
    <vehicle id="left_64" type="SUMO_DEFAULT_TYPE" route="E2W" depart="73"/>
    <vehicle id="right_65" type="SUMO_DEFAULT_TYPE" route="W2E" depart="76"/>
    <vehicle id="left_66" type="SUMO_DEFAULT_TYPE" route="E2W" depart="77"/>
    <vehicle id="right_67" type="SUMO_DEFAULT_TYPE" route="W2E" depart="78"/>
    <vehicle id="left_68" type="SUMO_DEFAULT_TYPE" route="E2W" depart="78"/>
    <vehicle id="right_69" type="SUMO_DEFAULT_TYPE" route="W2E" depart="80"/>
    <vehicle id="up_70" type="SUMO_DEFAULT_TYPE" route="S2N" depart="81"/>
    <vehicle id="right_71" type="SUMO_DEFAULT_TYPE" route="W2E" depart="82"/>
    <vehicle id="left_72" type="SUMO_DEFAULT_TYPE" route="E2W" depart="88"/>
    <vehicle id="leftLT_73" type="SUMO_DEFAULT_TYPE" route="N2E" depart="88" color="1,0,0"/>
    <vehicle id="right_74" type="SUMO_DEFAULT_TYPE" route="W2E" depart="92"/>
    <vehicle id="up_75" type="SUMO_DEFAULT_TYPE" route="S2N" depart="93"/>
    <vehicle id="right_76" type="SUMO_DEFAULT_TYPE" route="W2E" depart="94"/>
    <vehicle id="right_77" type="SUMO_DEFAULT_TYPE" route="W2E" depart="95"/>
    <vehicle id="left_78" type="SUMO_DEFAULT_TYPE" route="E2W" depart="95"/>
    <vehicle id="right_79" type="SUMO_DEFAULT_TYPE" route="W2E" depart="96"/>
    <vehicle id="upLT_80" type="SUMO_DEFAULT_TYPE" route="S2W" depart="99" color="1,0,0"/>
    <vehicle id="right_81" type="SUMO_DEFAULT_TYPE" route="W2E" depart="100"/>
    <vehicle id="downLT_82" type="SUMO_DEFAULT_TYPE" route="E2S" depart="100" color="1,0,0"/>
    <vehicle id="right_83" type="SUMO_DEFAULT_TYPE" route="W2E" depart="102"/>
    <vehicle id="left_84" type="SUMO_DEFAULT_TYPE" route="E2W" depart="103"/>
    <vehicle id="left_85" type="SUMO_DEFAULT_TYPE" route="E2W" depart="104"/>
    <vehicle id="right_86" type="SUMO_DEFAULT_TYPE" route="W2E" depart="105"/>
    <vehicle id="left_87" type="SUMO_DEFAULT_TYPE" route="E2W" depart="105"/>
    <vehicle id="left_88" type="SUMO_DEFAULT_TYPE" route="E2W" depart="107"/>
    <vehicle id="down_89" type="SUMO_DEFAULT_TYPE" route="N2S" depart="110"/>
    <vehicle id="right_90" type="SUMO_DEFAULT_TYPE" route="W2E" depart="111"/>
    <vehicle id="left_91" type="SUMO_DEFAULT_TYPE" route="E2W" depart="111"/>
    <vehicle id="downLT_92" type="SUMO_DEFAULT_TYPE" route="E2S" depart="111" color="1,0,0"/>
    <vehicle id="right_93" type="SUMO_DEFAULT_TYPE" route="W2E" depart="114"/>
    <vehicle id="left_94" type="SUMO_DEFAULT_TYPE" route="E2W" depart="114"/>
    <vehicle id="down_95" type="SUMO_DEFAULT_TYPE" route="N2S" depart="114"/>
    <vehicle id="downLT_96" type="SUMO_DEFAULT_TYPE" route="E2S" depart="114" color="1,0,0"/>
    <vehicle id="right_97" type="SUMO_DEFAULT_TYPE" route="W2E" depart="115"/>
    <vehicle id="right_98" type="SUMO_DEFAULT_TYPE" route="W2E" depart="116"/>
    <vehicle id="left_99" type="SUMO_DEFAULT_TYPE" route="E2W" depart="118"/>
    <vehicle id="left_100" type="SUMO_DEFAULT_TYPE" route="E2W" depart="120"/>
    <vehicle id="right_101" type="SUMO_DEFAULT_TYPE" route="W2E" depart="121"/>
    <vehicle id="right_102" type="SUMO_DEFAULT_TYPE" route="W2E" depart="122"/>
    <vehicle id="left_103" type="SUMO_DEFAULT_TYPE" route="E2W" depart="125"/>
    <vehicle id="right_104" type="SUMO_DEFAULT_TYPE" route="W2E" depart="129"/>
    <vehicle id="right_105" type="SUMO_DEFAULT_TYPE" route="W2E" depart="135"/>
    <vehicle id="left_106" type="SUMO_DEFAULT_TYPE" route="E2W" depart="135"/>
    <vehicle id="left_107" type="SUMO_DEFAULT_TYPE" route="E2W" depart="136"/>
    <vehicle id="right_108" type="SUMO_DEFAULT_TYPE" route="W2E" depart="137"/>
    <vehicle id="right_109" type="SUMO_DEFAULT_TYPE" route="W2E" depart="139"/>
    <vehicle id="rightLT_110" type="SUMO_DEFAULT_TYPE" route="W2N" depart="139" color="1,0,0"/>
    <vehicle id="rightLT_111" type="SUMO_DEFAULT_TYPE" route="W2N" depart="141" color="1,0,0"/>
    <vehicle id="left_112" type="SUMO_DEFAULT_TYPE" route="E2W" depart="142"/>
    <vehicle id="right_113" type="SUMO_DEFAULT_TYPE" route="W2E" depart="143"/>
    <vehicle id="left_114" type="SUMO_DEFAULT_TYPE" route="E2W" depart="143"/>
    <vehicle id="down_115" type="SUMO_DEFAULT_TYPE" route="N2S" depart="143"/>
    <vehicle id="left_116" type="SUMO_DEFAULT_TYPE" route="E2W" depart="144"/>
    <vehicle id="right_117" type="SUMO_DEFAULT_TYPE" route="W2E" depart="145"/>
    <vehicle id="right_118" type="SUMO_DEFAULT_TYPE" route="W2E" depart="146"/>
    <vehicle id="left_119" type="SUMO_DEFAULT_TYPE" route="E2W" depart="146"/>
    <vehicle id="left_120" type="SUMO_DEFAULT_TYPE" route="E2W" depart="147"/>
    <vehicle id="left_121" type="SUMO_DEFAULT_TYPE" route="E2W" depart="148"/>
    <vehicle id="left_122" type="SUMO_DEFAULT_TYPE" route="E2W" depart="150"/>
    <vehicle id="right_123" type="SUMO_DEFAULT_TYPE" route="W2E" depart="151"/>
    <vehicle id="left_124" type="SUMO_DEFAULT_TYPE" route="E2W" depart="151"/>
    <vehicle id="up_125" type="SUMO_DEFAULT_TYPE" route="S2N" depart="151"/>
    <vehicle id="left_126" type="SUMO_DEFAULT_TYPE" route="E2W" depart="152"/>
    <vehicle id="left_127" type="SUMO_DEFAULT_TYPE" route="E2W" depart="153"/>
    <vehicle id="right_128" type="SUMO_DEFAULT_TYPE" route="W2E" depart="155"/>
    <vehicle id="left_129" type="SUMO_DEFAULT_TYPE" route="E2W" depart="155"/>
    <vehicle id="rightLT_130" type="SUMO_DEFAULT_TYPE" route="W2N" depart="156" color="1,0,0"/>
    <vehicle id="right_131" type="SUMO_DEFAULT_TYPE" route="W2E" depart="158"/>
    <vehicle id="right_132" type="SUMO_DEFAULT_TYPE" route="W2E" depart="159"/>
    <vehicle id="left_133" type="SUMO_DEFAULT_TYPE" route="E2W" depart="159"/>
    <vehicle id="left_134" type="SUMO_DEFAULT_TYPE" route="E2W" depart="160"/>
    <vehicle id="right_135" type="SUMO_DEFAULT_TYPE" route="W2E" depart="161"/>
    <vehicle id="left_136" type="SUMO_DEFAULT_TYPE" route="E2W" depart="162"/>
    <vehicle id="left_137" type="SUMO_DEFAULT_TYPE" route="E2W" depart="163"/>
    <vehicle id="upLT_138" type="SUMO_DEFAULT_TYPE" route="S2W" depart="163" color="1,0,0"/>
    <vehicle id="right_139" type="SUMO_DEFAULT_TYPE" route="W2E" depart="164"/>
    <vehicle id="up_140" type="SUMO_DEFAULT_TYPE" route="S2N" depart="164"/>
    <vehicle id="upLT_141" type="SUMO_DEFAULT_TYPE" route="S2W" depart="165" color="1,0,0"/>
    <vehicle id="left_142" type="SUMO_DEFAULT_TYPE" route="E2W" depart="166"/>
    <vehicle id="left_143" type="SUMO_DEFAULT_TYPE" route="E2W" depart="168"/>
    <vehicle id="leftLT_144" type="SUMO_DEFAULT_TYPE" route="N2E" depart="168" color="1,0,0"/>
    <vehicle id="left_145" type="SUMO_DEFAULT_TYPE" route="E2W" depart="169"/>
    <vehicle id="rightLT_146" type="SUMO_DEFAULT_TYPE" route="W2N" depart="170" color="1,0,0"/>
    <vehicle id="right_147" type="SUMO_DEFAULT_TYPE" route="W2E" depart="174"/>
    <vehicle id="right_148" type="SUMO_DEFAULT_TYPE" route="W2E" depart="176"/>
    <vehicle id="down_149" type="SUMO_DEFAULT_TYPE" route="N2S" depart="176"/>
    <vehicle id="left_150" type="SUMO_DEFAULT_TYPE" route="E2W" depart="177"/>
    <vehicle id="right_151" type="SUMO_DEFAULT_TYPE" route="W2E" depart="180"/>
    <vehicle id="right_152" type="SUMO_DEFAULT_TYPE" route="W2E" depart="181"/>
    <vehicle id="right_153" type="SUMO_DEFAULT_TYPE" route="W2E" depart="182"/>
    <vehicle id="rightLT_154" type="SUMO_DEFAULT_TYPE" route="W2N" depart="182" color="1,0,0"/>
    <vehicle id="left_155" type="SUMO_DEFAULT_TYPE" route="E2W" depart="183"/>
    <vehicle id="right_156" type="SUMO_DEFAULT_TYPE" route="W2E" depart="184"/>
    <vehicle id="right_157" type="SUMO_DEFAULT_TYPE" route="W2E" depart="185"/>
    <vehicle id="left_158" type="SUMO_DEFAULT_TYPE" route="E2W" depart="185"/>
    <vehicle id="right_159" type="SUMO_DEFAULT_TYPE" route="W2E" depart="186"/>
    <vehicle id="left_160" type="SUMO_DEFAULT_TYPE" route="E2W" depart="186"/>
    <vehicle id="left_161" type="SUMO_DEFAULT_TYPE" route="E2W" depart="187"/>
    <vehicle id="right_162" type="SUMO_DEFAULT_TYPE" route="W2E" depart="188"/>
    <vehicle id="left_163" type="SUMO_DEFAULT_TYPE" route="E2W" depart="188"/>
    <vehicle id="upLT_164" type="SUMO_DEFAULT_TYPE" route="S2W" depart="190" color="1,0,0"/>
    <vehicle id="right_165" type="SUMO_DEFAULT_TYPE" route="W2E" depart="191"/>
    <vehicle id="left_166" type="SUMO_DEFAULT_TYPE" route="E2W" depart="191"/>
    <vehicle id="right_167" type="SUMO_DEFAULT_TYPE" route="W2E" depart="193"/>
    <vehicle id="leftLT_168" type="SUMO_DEFAULT_TYPE" route="N2E" depart="193" color="1,0,0"/>
    <vehicle id="right_169" type="SUMO_DEFAULT_TYPE" route="W2E" depart="194"/>
    <vehicle id="right_170" type="SUMO_DEFAULT_TYPE" route="W2E" depart="195"/>
    <vehicle id="up_171" type="SUMO_DEFAULT_TYPE" route="S2N" depart="196"/>
    <vehicle id="upLT_172" type="SUMO_DEFAULT_TYPE" route="S2W" depart="197" color="1,0,0"/>
    <vehicle id="left_173" type="SUMO_DEFAULT_TYPE" route="E2W" depart="199"/>
    <vehicle id="right_174" type="SUMO_DEFAULT_TYPE" route="W2E" depart="201"/>
    <vehicle id="right_175" type="SUMO_DEFAULT_TYPE" route="W2E" depart="202"/>
    <vehicle id="right_176" type="SUMO_DEFAULT_TYPE" route="W2E" depart="203"/>
    <vehicle id="left_177" type="SUMO_DEFAULT_TYPE" route="E2W" depart="203"/>
    <vehicle id="left_178" type="SUMO_DEFAULT_TYPE" route="E2W" depart="205"/>
    <vehicle id="left_179" type="SUMO_DEFAULT_TYPE" route="E2W" depart="206"/>
    <vehicle id="up_180" type="SUMO_DEFAULT_TYPE" route="S2N" depart="209"/>
    <vehicle id="left_181" type="SUMO_DEFAULT_TYPE" route="E2W" depart="210"/>
    <vehicle id="rightLT_182" type="SUMO_DEFAULT_TYPE" route="W2N" depart="211" color="1,0,0"/>
    <vehicle id="up_183" type="SUMO_DEFAULT_TYPE" route="S2N" depart="212"/>
    <vehicle id="right_184" type="SUMO_DEFAULT_TYPE" route="W2E" depart="214"/>
    <vehicle id="upLT_185" type="SUMO_DEFAULT_TYPE" route="S2W" depart="215" color="1,0,0"/>
    <vehicle id="right_186" type="SUMO_DEFAULT_TYPE" route="W2E" depart="216"/>
    <vehicle id="right_187" type="SUMO_DEFAULT_TYPE" route="W2E" depart="217"/>
    <vehicle id="right_188" type="SUMO_DEFAULT_TYPE" route="W2E" depart="218"/>
    <vehicle id="right_189" type="SUMO_DEFAULT_TYPE" route="W2E" depart="219"/>
    <vehicle id="right_190" type="SUMO_DEFAULT_TYPE" route="W2E" depart="221"/>
    <vehicle id="left_191" type="SUMO_DEFAULT_TYPE" route="E2W" depart="221"/>
    <vehicle id="right_192" type="SUMO_DEFAULT_TYPE" route="W2E" depart="222"/>
    <vehicle id="left_193" type="SUMO_DEFAULT_TYPE" route="E2W" depart="222"/>
    <vehicle id="left_194" type="SUMO_DEFAULT_TYPE" route="E2W" depart="226"/>
    <vehicle id="right_195" type="SUMO_DEFAULT_TYPE" route="W2E" depart="228"/>
    <vehicle id="downLT_196" type="SUMO_DEFAULT_TYPE" route="E2S" depart="228" color="1,0,0"/>
    <vehicle id="right_197" type="SUMO_DEFAULT_TYPE" route="W2E" depart="230"/>
    <vehicle id="left_198" type="SUMO_DEFAULT_TYPE" route="E2W" depart="230"/>
    <vehicle id="right_199" type="SUMO_DEFAULT_TYPE" route="W2E" depart="231"/>
    <vehicle id="right_200" type="SUMO_DEFAULT_TYPE" route="W2E" depart="233"/>
    <vehicle id="down_201" type="SUMO_DEFAULT_TYPE" route="N2S" depart="233"/>
    <vehicle id="left_202" type="SUMO_DEFAULT_TYPE" route="E2W" depart="234"/>
    <vehicle id="left_203" type="SUMO_DEFAULT_TYPE" route="E2W" depart="237"/>
    <vehicle id="left_204" type="SUMO_DEFAULT_TYPE" route="E2W" depart="238"/>
    <vehicle id="left_205" type="SUMO_DEFAULT_TYPE" route="E2W" depart="240"/>
    <vehicle id="left_206" type="SUMO_DEFAULT_TYPE" route="E2W" depart="241"/>
    <vehicle id="left_207" type="SUMO_DEFAULT_TYPE" route="E2W" depart="242"/>
    <vehicle id="right_208" type="SUMO_DEFAULT_TYPE" route="W2E" depart="243"/>
    <vehicle id="leftLT_209" type="SUMO_DEFAULT_TYPE" route="N2E" depart="243" color="1,0,0"/>
    <vehicle id="downLT_210" type="SUMO_DEFAULT_TYPE" route="E2S" depart="248" color="1,0,0"/>
    <vehicle id="rightLT_211" type="SUMO_DEFAULT_TYPE" route="W2N" depart="249" color="1,0,0"/>
    <vehicle id="left_212" type="SUMO_DEFAULT_TYPE" route="E2W" depart="255"/>
    <vehicle id="left_213" type="SUMO_DEFAULT_TYPE" route="E2W" depart="256"/>
    <vehicle id="right_214" type="SUMO_DEFAULT_TYPE" route="W2E" depart="257"/>
    <vehicle id="left_215" type="SUMO_DEFAULT_TYPE" route="E2W" depart="258"/>
    <vehicle id="upLT_216" type="SUMO_DEFAULT_TYPE" route="S2W" depart="258" color="1,0,0"/>
    <vehicle id="right_217" type="SUMO_DEFAULT_TYPE" route="W2E" depart="259"/>
    <vehicle id="left_218" type="SUMO_DEFAULT_TYPE" route="E2W" depart="259"/>
    <vehicle id="right_219" type="SUMO_DEFAULT_TYPE" route="W2E" depart="260"/>
    <vehicle id="left_220" type="SUMO_DEFAULT_TYPE" route="E2W" depart="260"/>
    <vehicle id="down_221" type="SUMO_DEFAULT_TYPE" route="N2S" depart="260"/>
    <vehicle id="right_222" type="SUMO_DEFAULT_TYPE" route="W2E" depart="262"/>
    <vehicle id="left_223" type="SUMO_DEFAULT_TYPE" route="E2W" depart="262"/>
    <vehicle id="right_224" type="SUMO_DEFAULT_TYPE" route="W2E" depart="263"/>
    <vehicle id="left_225" type="SUMO_DEFAULT_TYPE" route="E2W" depart="265"/>
    <vehicle id="left_226" type="SUMO_DEFAULT_TYPE" route="E2W" depart="266"/>
    <vehicle id="left_227" type="SUMO_DEFAULT_TYPE" route="E2W" depart="270"/>
    <vehicle id="right_228" type="SUMO_DEFAULT_TYPE" route="W2E" depart="271"/>
    <vehicle id="left_229" type="SUMO_DEFAULT_TYPE" route="E2W" depart="271"/>
    <vehicle id="up_230" type="SUMO_DEFAULT_TYPE" route="S2N" depart="271"/>
    <vehicle id="upLT_231" type="SUMO_DEFAULT_TYPE" route="S2W" depart="271" color="1,0,0"/>
    <vehicle id="downLT_232" type="SUMO_DEFAULT_TYPE" route="E2S" depart="272" color="1,0,0"/>
    <vehicle id="right_233" type="SUMO_DEFAULT_TYPE" route="W2E" depart="273"/>
    <vehicle id="left_234" type="SUMO_DEFAULT_TYPE" route="E2W" depart="275"/>
    <vehicle id="up_235" type="SUMO_DEFAULT_TYPE" route="S2N" depart="275"/>
    <vehicle id="left_236" type="SUMO_DEFAULT_TYPE" route="E2W" depart="276"/>
    <vehicle id="left_237" type="SUMO_DEFAULT_TYPE" route="E2W" depart="277"/>
    <vehicle id="left_238" type="SUMO_DEFAULT_TYPE" route="E2W" depart="280"/>
    <vehicle id="upLT_239" type="SUMO_DEFAULT_TYPE" route="S2W" depart="280" color="1,0,0"/>
    <vehicle id="right_240" type="SUMO_DEFAULT_TYPE" route="W2E" depart="281"/>
    <vehicle id="downLT_241" type="SUMO_DEFAULT_TYPE" route="E2S" depart="282" color="1,0,0"/>
    <vehicle id="left_242" type="SUMO_DEFAULT_TYPE" route="E2W" depart="283"/>
    <vehicle id="right_243" type="SUMO_DEFAULT_TYPE" route="W2E" depart="284"/>
    <vehicle id="left_244" type="SUMO_DEFAULT_TYPE" route="E2W" depart="285"/>
    <vehicle id="left_245" type="SUMO_DEFAULT_TYPE" route="E2W" depart="287"/>
    <vehicle id="down_246" type="SUMO_DEFAULT_TYPE" route="N2S" depart="287"/>
    <vehicle id="left_247" type="SUMO_DEFAULT_TYPE" route="E2W" depart="291"/>
    <vehicle id="left_248" type="SUMO_DEFAULT_TYPE" route="E2W" depart="292"/>
    <vehicle id="right_249" type="SUMO_DEFAULT_TYPE" route="W2E" depart="294"/>
    <vehicle id="left_250" type="SUMO_DEFAULT_TYPE" route="E2W" depart="294"/>
    <vehicle id="right_251" type="SUMO_DEFAULT_TYPE" route="W2E" depart="295"/>
    <vehicle id="left_252" type="SUMO_DEFAULT_TYPE" route="E2W" depart="297"/>
    <vehicle id="right_253" type="SUMO_DEFAULT_TYPE" route="W2E" depart="298"/>
    <vehicle id="left_254" type="SUMO_DEFAULT_TYPE" route="E2W" depart="298"/>
    <vehicle id="right_255" type="SUMO_DEFAULT_TYPE" route="W2E" depart="299"/>
    <vehicle id="left_256" type="SUMO_DEFAULT_TYPE" route="E2W" depart="301"/>
    <vehicle id="right_257" type="SUMO_DEFAULT_TYPE" route="W2E" depart="302"/>
    <vehicle id="left_258" type="SUMO_DEFAULT_TYPE" route="E2W" depart="303"/>
    <vehicle id="left_259" type="SUMO_DEFAULT_TYPE" route="E2W" depart="304"/>
    <vehicle id="right_260" type="SUMO_DEFAULT_TYPE" route="W2E" depart="305"/>
    <vehicle id="left_261" type="SUMO_DEFAULT_TYPE" route="E2W" depart="306"/>
    <vehicle id="rightLT_262" type="SUMO_DEFAULT_TYPE" route="W2N" depart="306" color="1,0,0"/>
    <vehicle id="left_263" type="SUMO_DEFAULT_TYPE" route="E2W" depart="308"/>
    <vehicle id="downLT_264" type="SUMO_DEFAULT_TYPE" route="E2S" depart="308" color="1,0,0"/>
    <vehicle id="left_265" type="SUMO_DEFAULT_TYPE" route="E2W" depart="310"/>
    <vehicle id="up_266" type="SUMO_DEFAULT_TYPE" route="S2N" depart="311"/>
    <vehicle id="left_267" type="SUMO_DEFAULT_TYPE" route="E2W" depart="312"/>
    <vehicle id="leftLT_268" type="SUMO_DEFAULT_TYPE" route="N2E" depart="313" color="1,0,0"/>
    <vehicle id="left_269" type="SUMO_DEFAULT_TYPE" route="E2W" depart="314"/>
    <vehicle id="leftLT_270" type="SUMO_DEFAULT_TYPE" route="N2E" depart="315" color="1,0,0"/>
    <vehicle id="left_271" type="SUMO_DEFAULT_TYPE" route="E2W" depart="317"/>
    <vehicle id="right_272" type="SUMO_DEFAULT_TYPE" route="W2E" depart="318"/>
    <vehicle id="left_273" type="SUMO_DEFAULT_TYPE" route="E2W" depart="318"/>
    <vehicle id="right_274" type="SUMO_DEFAULT_TYPE" route="W2E" depart="319"/>
    <vehicle id="up_275" type="SUMO_DEFAULT_TYPE" route="S2N" depart="319"/>
    <vehicle id="rightLT_276" type="SUMO_DEFAULT_TYPE" route="W2N" depart="320" color="1,0,0"/>
    <vehicle id="right_277" type="SUMO_DEFAULT_TYPE" route="W2E" depart="321"/>
    <vehicle id="right_278" type="SUMO_DEFAULT_TYPE" route="W2E" depart="322"/>
    <vehicle id="left_279" type="SUMO_DEFAULT_TYPE" route="E2W" depart="322"/>
    <vehicle id="right_280" type="SUMO_DEFAULT_TYPE" route="W2E" depart="323"/>
    <vehicle id="left_281" type="SUMO_DEFAULT_TYPE" route="E2W" depart="324"/>
    <vehicle id="right_282" type="SUMO_DEFAULT_TYPE" route="W2E" depart="328"/>
    <vehicle id="left_283" type="SUMO_DEFAULT_TYPE" route="E2W" depart="329"/>
    <vehicle id="right_284" type="SUMO_DEFAULT_TYPE" route="W2E" depart="330"/>
    <vehicle id="up_285" type="SUMO_DEFAULT_TYPE" route="S2N" depart="330"/>
    <vehicle id="right_286" type="SUMO_DEFAULT_TYPE" route="W2E" depart="332"/>
    <vehicle id="left_287" type="SUMO_DEFAULT_TYPE" route="E2W" depart="332"/>
    <vehicle id="left_288" type="SUMO_DEFAULT_TYPE" route="E2W" depart="334"/>
    <vehicle id="leftLT_289" type="SUMO_DEFAULT_TYPE" route="N2E" depart="335" color="1,0,0"/>
    <vehicle id="left_290" type="SUMO_DEFAULT_TYPE" route="E2W" depart="337"/>
    <vehicle id="left_291" type="SUMO_DEFAULT_TYPE" route="E2W" depart="338"/>
    <vehicle id="left_292" type="SUMO_DEFAULT_TYPE" route="E2W" depart="339"/>
    <vehicle id="upLT_293" type="SUMO_DEFAULT_TYPE" route="S2W" depart="340" color="1,0,0"/>
    <vehicle id="left_294" type="SUMO_DEFAULT_TYPE" route="E2W" depart="343"/>
    <vehicle id="upLT_295" type="SUMO_DEFAULT_TYPE" route="S2W" depart="343" color="1,0,0"/>
    <vehicle id="up_296" type="SUMO_DEFAULT_TYPE" route="S2N" depart="345"/>
    <vehicle id="downLT_297" type="SUMO_DEFAULT_TYPE" route="E2S" depart="345" color="1,0,0"/>
    <vehicle id="right_298" type="SUMO_DEFAULT_TYPE" route="W2E" depart="346"/>
    <vehicle id="left_299" type="SUMO_DEFAULT_TYPE" route="E2W" depart="346"/>
    <vehicle id="left_300" type="SUMO_DEFAULT_TYPE" route="E2W" depart="348"/>
    <vehicle id="leftLT_301" type="SUMO_DEFAULT_TYPE" route="N2E" depart="348" color="1,0,0"/>
    <vehicle id="right_302" type="SUMO_DEFAULT_TYPE" route="W2E" depart="349"/>
    <vehicle id="left_303" type="SUMO_DEFAULT_TYPE" route="E2W" depart="349"/>
    <vehicle id="left_304" type="SUMO_DEFAULT_TYPE" route="E2W" depart="352"/>
    <vehicle id="right_305" type="SUMO_DEFAULT_TYPE" route="W2E" depart="353"/>
    <vehicle id="left_306" type="SUMO_DEFAULT_TYPE" route="E2W" depart="354"/>
    <vehicle id="left_307" type="SUMO_DEFAULT_TYPE" route="E2W" depart="355"/>
    <vehicle id="up_308" type="SUMO_DEFAULT_TYPE" route="S2N" depart="356"/>
    <vehicle id="up_309" type="SUMO_DEFAULT_TYPE" route="S2N" depart="357"/>
    <vehicle id="leftLT_310" type="SUMO_DEFAULT_TYPE" route="N2E" depart="357" color="1,0,0"/>
    <vehicle id="left_311" type="SUMO_DEFAULT_TYPE" route="E2W" depart="358"/>
    <vehicle id="rightLT_312" type="SUMO_DEFAULT_TYPE" route="W2N" depart="358" color="1,0,0"/>
    <vehicle id="upLT_313" type="SUMO_DEFAULT_TYPE" route="S2W" depart="358" color="1,0,0"/>
    <vehicle id="left_314" type="SUMO_DEFAULT_TYPE" route="E2W" depart="359"/>
    <vehicle id="left_315" type="SUMO_DEFAULT_TYPE" route="E2W" depart="360"/>
    <vehicle id="right_316" type="SUMO_DEFAULT_TYPE" route="W2E" depart="363"/>
    <vehicle id="leftLT_317" type="SUMO_DEFAULT_TYPE" route="N2E" depart="363" color="1,0,0"/>
    <vehicle id="right_318" type="SUMO_DEFAULT_TYPE" route="W2E" depart="364"/>
    <vehicle id="downLT_319" type="SUMO_DEFAULT_TYPE" route="E2S" depart="364" color="1,0,0"/>
    <vehicle id="left_320" type="SUMO_DEFAULT_TYPE" route="E2W" depart="365"/>
    <vehicle id="left_321" type="SUMO_DEFAULT_TYPE" route="E2W" depart="366"/>
    <vehicle id="right_322" type="SUMO_DEFAULT_TYPE" route="W2E" depart="367"/>
    <vehicle id="left_323" type="SUMO_DEFAULT_TYPE" route="E2W" depart="368"/>
    <vehicle id="upLT_324" type="SUMO_DEFAULT_TYPE" route="S2W" depart="368" color="1,0,0"/>
    <vehicle id="right_325" type="SUMO_DEFAULT_TYPE" route="W2E" depart="369"/>
    <vehicle id="right_326" type="SUMO_DEFAULT_TYPE" route="W2E" depart="370"/>
    <vehicle id="left_327" type="SUMO_DEFAULT_TYPE" route="E2W" depart="371"/>
    <vehicle id="right_328" type="SUMO_DEFAULT_TYPE" route="W2E" depart="373"/>
    <vehicle id="left_329" type="SUMO_DEFAULT_TYPE" route="E2W" depart="374"/>
    <vehicle id="right_330" type="SUMO_DEFAULT_TYPE" route="W2E" depart="375"/>
    <vehicle id="right_331" type="SUMO_DEFAULT_TYPE" route="W2E" depart="377"/>
    <vehicle id="down_332" type="SUMO_DEFAULT_TYPE" route="N2S" depart="377"/>
    <vehicle id="left_333" type="SUMO_DEFAULT_TYPE" route="E2W" depart="379"/>
    <vehicle id="right_334" type="SUMO_DEFAULT_TYPE" route="W2E" depart="380"/>
    <vehicle id="left_335" type="SUMO_DEFAULT_TYPE" route="E2W" depart="380"/>
    <vehicle id="right_336" type="SUMO_DEFAULT_TYPE" route="W2E" depart="381"/>
    <vehicle id="left_337" type="SUMO_DEFAULT_TYPE" route="E2W" depart="381"/>
    <vehicle id="leftLT_338" type="SUMO_DEFAULT_TYPE" route="N2E" depart="381" color="1,0,0"/>
    <vehicle id="left_339" type="SUMO_DEFAULT_TYPE" route="E2W" depart="382"/>
    <vehicle id="left_340" type="SUMO_DEFAULT_TYPE" route="E2W" depart="383"/>
    <vehicle id="rightLT_341" type="SUMO_DEFAULT_TYPE" route="W2N" depart="383" color="1,0,0"/>
    <vehicle id="right_342" type="SUMO_DEFAULT_TYPE" route="W2E" depart="384"/>
    <vehicle id="left_343" type="SUMO_DEFAULT_TYPE" route="E2W" depart="384"/>
    <vehicle id="right_344" type="SUMO_DEFAULT_TYPE" route="W2E" depart="386"/>
    <vehicle id="left_345" type="SUMO_DEFAULT_TYPE" route="E2W" depart="386"/>
    <vehicle id="rightLT_346" type="SUMO_DEFAULT_TYPE" route="W2N" depart="386" color="1,0,0"/>
    <vehicle id="left_347" type="SUMO_DEFAULT_TYPE" route="E2W" depart="387"/>
    <vehicle id="right_348" type="SUMO_DEFAULT_TYPE" route="W2E" depart="388"/>
    <vehicle id="right_349" type="SUMO_DEFAULT_TYPE" route="W2E" depart="389"/>
    <vehicle id="leftLT_350" type="SUMO_DEFAULT_TYPE" route="N2E" depart="389" color="1,0,0"/>
    <vehicle id="right_351" type="SUMO_DEFAULT_TYPE" route="W2E" depart="390"/>
    <vehicle id="down_352" type="SUMO_DEFAULT_TYPE" route="N2S" depart="390"/>
    <vehicle id="right_353" type="SUMO_DEFAULT_TYPE" route="W2E" depart="391"/>
    <vehicle id="left_354" type="SUMO_DEFAULT_TYPE" route="E2W" depart="393"/>
    <vehicle id="left_355" type="SUMO_DEFAULT_TYPE" route="E2W" depart="395"/>
    <vehicle id="upLT_356" type="SUMO_DEFAULT_TYPE" route="S2W" depart="395" color="1,0,0"/>
    <vehicle id="right_357" type="SUMO_DEFAULT_TYPE" route="W2E" depart="396"/>
    <vehicle id="left_358" type="SUMO_DEFAULT_TYPE" route="E2W" depart="397"/>
    <vehicle id="right_359" type="SUMO_DEFAULT_TYPE" route="W2E" depart="399"/>