<routes>
    <vType id="SUMO_DEFAULT_TYPE" accel="0.8" decel="4.5" sigma="0" length="5" minGap="2" maxSpeed="70"/>

    <route id="W2E" edges="51o 1i 2o 52i"/>
    <route id="E2W" edges="52o 2i 1o 51i"/>
    <route id="N2S" edges="54o 4i 3o 53i"/>
    <route id="S2N" edges="53o 3i 4o 54i"/>

    <route id="W2N" edges="51o 1i 4o 54i"/>
    <route id="N2E" edges="54o 4i 2o 52i"/>
    <route id="E2S" edges="52o 2i 3o 53i"/>
    <route id="S2W" edges="53o 3i 1o 51i"/>

    <route id="W2S" edges="51o 1i 3o 53i"/>
    <route id="S2E" edges="53o 3i 2o 52i"/>
    <route id="E2N" edges="52o 2i 4o 54i"/>
    <route id="N2W" edges="54o 4i 1o 51i"/>


    <vehicle id="left_0" type="SUMO_DEFAULT_TYPE" route="E2W" depart="0"/>
    <vehicle id="right_1" type="SUMO_DEFAULT_TYPE" route="W2E" depart="1"/>
    <vehicle id="left_2" type="SUMO_DEFAULT_TYPE" route="E2W" depart="1"/>
    <vehicle id="left_3" type="SUMO_DEFAULT_TYPE" route="E2W" depart="2"/>
    <vehicle id="down_4" type="SUMO_DEFAULT_TYPE" route="N2S" depart="2"/>
    <vehicle id="up_5" type="SUMO_DEFAULT_TYPE" route="S2N" depart="3"/>
    <vehicle id="left_6" type="SUMO_DEFAULT_TYPE" route="E2W" depart="4"/>
    <vehicle id="right_7" type="SUMO_DEFAULT_TYPE" route="W2E" depart="6"/>
    <vehicle id="left_8" type="SUMO_DEFAULT_TYPE" route="E2W" depart="7"/>
    <vehicle id="down_9" type="SUMO_DEFAULT_TYPE" route="N2S" depart="9"/>
    <vehicle id="downLT_10" type="SUMO_DEFAULT_TYPE" route="E2S" depart="9" color="1,0,0"/>
    <vehicle id="down_11" type="SUMO_DEFAULT_TYPE" route="N2S" depart="10"/>
    <vehicle id="up_12" type="SUMO_DEFAULT_TYPE" route="S2N" depart="10"/>
    <vehicle id="right_13" type="SUMO_DEFAULT_TYPE" route="W2E" depart="11"/>
    <vehicle id="left_14" type="SUMO_DEFAULT_TYPE" route="E2W" depart="11"/>
    <vehicle id="left_15" type="SUMO_DEFAULT_TYPE" route="E2W" depart="12"/>
    <vehicle id="up_16" type="SUMO_DEFAULT_TYPE" route="S2N" depart="12"/>
    <vehicle id="left_17" type="SUMO_DEFAULT_TYPE" route="E2W" depart="14"/>
    <vehicle id="left_18" type="SUMO_DEFAULT_TYPE" route="E2W" depart="15"/>
    <vehicle id="left_19" type="SUMO_DEFAULT_TYPE" route="E2W" depart="16"/>
    <vehicle id="up_20" type="SUMO_DEFAULT_TYPE" route="S2N" depart="16"/>
    <vehicle id="upLT_21" type="SUMO_DEFAULT_TYPE" route="S2W" depart="17" color="1,0,0"/>
    <vehicle id="left_22" type="SUMO_DEFAULT_TYPE" route="E2W" depart="18"/>
    <vehicle id="down_23" type="SUMO_DEFAULT_TYPE" route="N2S" depart="18"/>
    <vehicle id="left_24" type="SUMO_DEFAULT_TYPE" route="E2W" depart="21"/>
    <vehicle id="left_25" type="SUMO_DEFAULT_TYPE" route="E2W" depart="23"/>
    <vehicle id="right_26" type="SUMO_DEFAULT_TYPE" route="W2E" depart="24"/>
    <vehicle id="left_27" type="SUMO_DEFAULT_TYPE" route="E2W" depart="25"/>
    <vehicle id="left_28" type="SUMO_DEFAULT_TYPE" route="E2W" depart="26"/>
    <vehicle id="right_29" type="SUMO_DEFAULT_TYPE" route="W2E" depart="28"/>
    <vehicle id="left_30" type="SUMO_DEFAULT_TYPE" route="E2W" depart="28"/>
    <vehicle id="left_31" type="SUMO_DEFAULT_TYPE" route="E2W" depart="29"/>
    <vehicle id="right_32" type="SUMO_DEFAULT_TYPE" route="W2E" depart="32"/>
    <vehicle id="left_33" type="SUMO_DEFAULT_TYPE" route="E2W" depart="32"/>
    <vehicle id="left_34" type="SUMO_DEFAULT_TYPE" route="E2W" depart="33"/>
    <vehicle id="down_35" type="SUMO_DEFAULT_TYPE" route="N2S" depart="33"/>
    <vehicle id="downLT_36" type="SUMO_DEFAULT_TYPE" route="E2S" depart="33" color="1,0,0"/>
    <vehicle id="right_37" type="SUMO_DEFAULT_TYPE" route="W2E" depart="34"/>
    <vehicle id="downLT_38" type="SUMO_DEFAULT_TYPE" route="E2S" depart="34" color="1,0,0"/>
    <vehicle id="left_39" type="SUMO_DEFAULT_TYPE" route="E2W" depart="35"/>
    <vehicle id="left_40" type="SUMO_DEFAULT_TYPE" route="E2W" depart="36"/>
    <vehicle id="leftLT_41" type="SUMO_DEFAULT_TYPE" route="N2E" depart="36" color="1,0,0"/>
    <vehicle id="downLT_42" type="SUMO_DEFAULT_TYPE" route="E2S" depart="36" color="1,0,0"/>
    <vehicle id="left_43" type="SUMO_DEFAULT_TYPE" route="E2W" depart="37"/>
    <vehicle id="down_44" type="SUMO_DEFAULT_TYPE" route="N2S" depart="37"/>
    <vehicle id="left_45" type="SUMO_DEFAULT_TYPE" route="E2W" depart="38"/>
    <vehicle id="up_46" type="SUMO_DEFAULT_TYPE" route="S2N" depart="38"/>
    <vehicle id="downLT_47" type="SUMO_DEFAULT_TYPE" route="E2S" depart="38" color="1,0,0"/>
    <vehicle id="right_48" type="SUMO_DEFAULT_TYPE" route="W2E" depart="39"/>
    <vehicle id="left_49" type="SUMO_DEFAULT_TYPE" route="E2W" depart="40"/>
    <vehicle id="leftLT_50" type="SUMO_DEFAULT_TYPE" route="N2E" depart="40" color="1,0,0"/>
    <vehicle id="left_51" type="SUMO_DEFAULT_TYPE" route="E2W" depart="42"/>
    <vehicle id="left_52" type="SUMO_DEFAULT_TYPE" route="E2W" depart="44"/>
    <vehicle id="right_53" type="SUMO_DEFAULT_TYPE" route="W2E" depart="45"/>
    <vehicle id="right_54" type="SUMO_DEFAULT_TYPE" route="W2E" depart="46"/>
    <vehicle id="left_55" type="SUMO_DEFAULT_TYPE" route="E2W" depart="50"/>
    <vehicle id="right_56" type="SUMO_DEFAULT_TYPE" route="W2E" depart="51"/>
    <vehicle id="left_57" type="SUMO_DEFAULT_TYPE" route="E2W" depart="51"/>
    <vehicle id="right_58" type="SUMO_DEFAULT_TYPE" route="W2E" depart="52"/>
    <vehicle id="down_59" type="SUMO_DEFAULT_TYPE" route="N2S" depart="54"/>
    <vehicle id="right_60" type="SUMO_DEFAULT_TYPE" route="W2E" depart="55"/>
    <vehicle id="left_61" type="SUMO_DEFAULT_TYPE" route="E2W" depart="55"/>
    <vehicle id="right_62" type="SUMO_DEFAULT_TYPE" route="W2E" depart="56"/>
    <vehicle id="right_63" type="SUMO_DEFAULT_TYPE" route="W2E" depart="58"/>
    <vehicle id="right_64" type="SUMO_DEFAULT_TYPE" route="W2E" depart="59"/>
    <vehicle id="left_65" type="SUMO_DEFAULT_TYPE" route="E2W" depart="59"/>
    <vehicle id="left_66" type="SUMO_DEFAULT_TYPE" route="E2W" depart="63"/>
    <vehicle id="rightLT_67" type="SUMO_DEFAULT_TYPE" route="W2N" depart="63" color="1,0,0"/>
    <vehicle id="upLT_68" type="SUMO_DEFAULT_TYPE" route="S2W" depart="64" color="1,0,0"/>
    <vehicle id="down_69" type="SUMO_DEFAULT_TYPE" route="N2S" depart="66"/>
    <vehicle id="right_70" type="SUMO_DEFAULT_TYPE" route="W2E" depart="67"/>
    <vehicle id="left_71" type="SUMO_DEFAULT_TYPE" route="E2W" depart="69"/>
    <vehicle id="right_72" type="SUMO_DEFAULT_TYPE" route="W2E" depart="71"/>
    <vehicle id="up_73" type="SUMO_DEFAULT_TYPE" route="S2N" depart="71"/>
    <vehicle id="rightLT_74" type="SUMO_DEFAULT_TYPE" route="W2N" depart="71" color="1,0,0"/>
    <vehicle id="right_75" type="SUMO_DEFAULT_TYPE" route="W2E" depart="72"/>
    <vehicle id="right_76" type="SUMO_DEFAULT_TYPE" route="W2E" depart="79"/>
    <vehicle id="up_77" type="SUMO_DEFAULT_TYPE" route="S2N" depart="79"/>
    <vehicle id="up_78" type="SUMO_DEFAULT_TYPE" route="S2N" depart="80"/>
    <vehicle id="left_79" type="SUMO_DEFAULT_TYPE" route="E2W" depart="81"/>
    <vehicle id="down_80" type="SUMO_DEFAULT_TYPE" route="N2S" depart="81"/>
    <vehicle id="down_81" type="SUMO_DEFAULT_TYPE" route="N2S" depart="84"/>
    <vehicle id="down_82" type="SUMO_DEFAULT_TYPE" route="N2S" depart="86"/>
    <vehicle id="right_83" type="SUMO_DEFAULT_TYPE" route="W2E" depart="88"/>
    <vehicle id="right_84" type="SUMO_DEFAULT_TYPE" route="W2E" depart="89"/>
    <vehicle id="up_85" type="SUMO_DEFAULT_TYPE" route="S2N" depart="90"/>
    <vehicle id="right_86" type="SUMO_DEFAULT_TYPE" route="W2E" depart="91"/>
    <vehicle id="right_87" type="SUMO_DEFAULT_TYPE" route="W2E" depart="95"/>
    <vehicle id="left_88" type="SUMO_DEFAULT_TYPE" route="E2W" depart="95"/>
    <vehicle id="left_89" type="SUMO_DEFAULT_TYPE" route="E2W" depart="96"/>
    <vehicle id="right_90" type="SUMO_DEFAULT_TYPE" route="W2E" depart="97"/>
    <vehicle id="right_91" type="SUMO_DEFAULT_TYPE" route="W2E" depart="99"/>
    <vehicle id="up_92" type="SUMO_DEFAULT_TYPE" route="S2N" depart="100"/>
    <vehicle id="up_93" type="SUMO_DEFAULT_TYPE" route="S2N" depart="101"/>
    <vehicle id="downLT_94" type="SUMO_DEFAULT_TYPE" route="E2S" depart="102" color="1,0,0"/>
    <vehicle id="right_95" type="SUMO_DEFAULT_TYPE" route="W2E" depart="104"/>
    <vehicle id="left_96" type="SUMO_DEFAULT_TYPE" route="E2W" depart="104"/>
    <vehicle id="rightLT_97" type="SUMO_DEFAULT_TYPE" route="W2N" depart="104" color="1,0,0"/>
    <vehicle id="leftLT_98" type="SUMO_DEFAULT_TYPE" route="N2E" depart="104" color="1,0,0"/>
    <vehicle id="downLT_99" type="SUMO_DEFAULT_TYPE" route="E2S" depart="106" color="1,0,0"/>
    <vehicle id="left_100" type="SUMO_DEFAULT_TYPE" route="E2W" depart="107"/>
    <vehicle id="upLT_101" type="SUMO_DEFAULT_TYPE" route="S2W" depart="107" color="1,0,0"/>
    <vehicle id="right_102" type="SUMO_DEFAULT_TYPE" route="W2E" depart="108"/>
    <vehicle id="left_103" type="SUMO_DEFAULT_TYPE" route="E2W" depart="109"/>
    <vehicle id="right_104" type="SUMO_DEFAULT_TYPE" route="W2E" depart="111"/>
    <vehicle id="right_105" type="SUMO_DEFAULT_TYPE" route="W2E" depart="112"/>
    <vehicle id="right_106" type="SUMO_DEFAULT_TYPE" route="W2E" depart="114"/>
    <vehicle id="left_107" type="SUMO_DEFAULT_TYPE" route="E2W" depart="114"/>
    <vehicle id="up_108" type="SUMO_DEFAULT_TYPE" route="S2N" depart="115"/>
    <vehicle id="right_109" type="SUMO_DEFAULT_TYPE" route="W2E" depart="116"/>
    <vehicle id="left_110" type="SUMO_DEFAULT_TYPE" route="E2W" depart="116"/>
    <vehicle id="right_111" type="SUMO_DEFAULT_TYPE" route="W2E" depart="117"/>
    <vehicle id="left_112" type="SUMO_DEFAULT_TYPE" route="E2W" depart="117"/>
    <vehicle id="down_113" type="SUMO_DEFAULT_TYPE" route="N2S" depart="118"/>
    <vehicle id="right_114" type="SUMO_DEFAULT_TYPE" route="W2E" depart="119"/>
    <vehicle id="right_115" type="SUMO_DEFAULT_TYPE" route="W2E" depart="120"/>
    <vehicle id="left_116" type="SUMO_DEFAULT_TYPE" route="E2W" depart="120"/>
    <vehicle id="down_117" type="SUMO_DEFAULT_TYPE" route="N2S" depart="121"/>
    <vehicle id="right_118" type="SUMO_DEFAULT_TYPE" route="W2E" depart="122"/>
    <vehicle id="right_119" type="SUMO_DEFAULT_TYPE" route="W2E" depart="126"/>
    <vehicle id="left_120" type="SUMO_DEFAULT_TYPE" route="E2W" depart="126"/>
    <vehicle id="up_121" type="SUMO_DEFAULT_TYPE" route="S2N" depart="126"/>
    <vehicle id="right_122" type="SUMO_DEFAULT_TYPE" route="W2E" depart="129"/>
    <vehicle id="left_123" type="SUMO_DEFAULT_TYPE" route="E2W" depart="129"/>
    <vehicle id="left_124" type="SUMO_DEFAULT_TYPE" route="E2W" depart="130"/>
    <vehicle id="right_125" type="SUMO_DEFAULT_TYPE" route="W2E" depart="131"/>
    <vehicle id="left_126" type="SUMO_DEFAULT_TYPE" route="E2W" depart="132"/>
    <vehicle id="downLT_127" type="SUMO_DEFAULT_TYPE" route="E2S" depart="132" color="1,0,0"/>
    <vehicle id="left_128" type="SUMO_DEFAULT_TYPE" route="E2W" depart="133"/>
    <vehicle id="left_129" type="SUMO_DEFAULT_TYPE" route="E2W" depart="134"/>
    <vehicle id="upLT_130" type="SUMO_DEFAULT_TYPE" route="S2W" depart="135" color="1,0,0"/>
    <vehicle id="right_131" type="SUMO_DEFAULT_TYPE" route="W2E" depart="138"/>
    <vehicle id="left_132" type="SUMO_DEFAULT_TYPE" route="E2W" depart="140"/>
    <vehicle id="right_133" type="SUMO_DEFAULT_TYPE" route="W2E" depart="142"/>
    <vehicle id="right_134" type="SUMO_DEFAULT_TYPE" route="W2E" depart="144"/>
    <vehicle id="down_135" type="SUMO_DEFAULT_TYPE" route="N2S" depart="145"/>
    <vehicle id="right_136" type="SUMO_DEFAULT_TYPE" route="W2E" depart="146"/>
    <vehicle id="left_137" type="SUMO_DEFAULT_TYPE" route="E2W" depart="147"/>
    <vehicle id="left_138" type="SUMO_DEFAULT_TYPE" route="E2W" depart="148"/>
    <vehicle id="right_139" type="SUMO_DEFAULT_TYPE" route="W2E" depart="149"/>
    <vehicle id="left_140" type="SUMO_DEFAULT_TYPE" route="E2W" depart="150"/>
    <vehicle id="rightLT_141" type="SUMO_DEFAULT_TYPE" route="W2N" depart="150" color="1,0,0"/>
    <vehicle id="downLT_142" type="SUMO_DEFAULT_TYPE" route="E2S" depart="150" color="1,0,0"/>
    <vehicle id="right_143" type="SUMO_DEFAULT_TYPE" route="W2E" depart="151"/>
    <vehicle id="down_144" type="SUMO_DEFAULT_TYPE" route="N2S" depart="151"/>
    <vehicle id="right_145" type="SUMO_DEFAULT_TYPE" route="W2E" depart="154"/>
    <vehicle id="left_146" type="SUMO_DEFAULT_TYPE" route="E2W" depart="154"/>
    <vehicle id="right_147" type="SUMO_DEFAULT_TYPE" route="W2E" depart="155"/>
    <vehicle id="left_148" type="SUMO_DEFAULT_TYPE" route="E2W" depart="155"/>
    <vehicle id="left_149" type="SUMO_DEFAULT_TYPE" route="E2W" depart="156"/>
    <vehicle id="down_150" type="SUMO_DEFAULT_TYPE" route="N2S" depart="157"/>
    <vehicle id="left_151" type="SUMO_DEFAULT_TYPE" route="E2W" depart="158"/>
    <vehicle id="rightLT_152" type="SUMO_DEFAULT_TYPE" route="W2N" depart="160" color="1,0,0"/>
    <vehicle id="up_153" type="SUMO_DEFAULT_TYPE" route="S2N" depart="162"/>
    <vehicle id="down_154" type="SUMO_DEFAULT_TYPE" route="N2S" depart="164"/>
    <vehicle id="right_155" type="SUMO_DEFAULT_TYPE" route="W2E" depart="165"/>
    <vehicle id="left_156" type="SUMO_DEFAULT_TYPE" route="E2W" depart="165"/>
    <vehicle id="rightLT_157" type="SUMO_DEFAULT_TYPE" route="W2N" depart="166" color="1,0,0"/>
    <vehicle id="left_158" type="SUMO_DEFAULT_TYPE" route="E2W" depart="167"/>
    <vehicle id="left_159" type="SUMO_DEFAULT_TYPE" route="E2W" depart="169"/>
    <vehicle id="left_160" type="SUMO_DEFAULT_TYPE" route="E2W" depart="171"/>
    <vehicle id="left_161" type="SUMO_DEFAULT_TYPE" route="E2W" depart="172"/>
    <vehicle id="upLT_162" type="SUMO_DEFAULT_TYPE" route="S2W" depart="172" color="1,0,0"/>
    <vehicle id="down_163" type="SUMO_DEFAULT_TYPE" route="N2S" depart="173"/>
    <vehicle id="right_164" type="SUMO_DEFAULT_TYPE" route="W2E" depart="174"/>
    <vehicle id="right_165" type="SUMO_DEFAULT_TYPE" route="W2E" depart="175"/>
    <vehicle id="left_166" type="SUMO_DEFAULT_TYPE" route="E2W" depart="175"/>
    <vehicle id="down_167" type="SUMO_DEFAULT_TYPE" route="N2S" depart="175"/>
    <vehicle id="left_168" type="SUMO_DEFAULT_TYPE" route="E2W" depart="176"/>
    <vehicle id="right_169" type="SUMO_DEFAULT_TYPE" route="W2E" depart="178"/>
    <vehicle id="left_170" type="SUMO_DEFAULT_TYPE" route="E2W" depart="179"/>
    <vehicle id="left_171" type="SUMO_DEFAULT_TYPE" route="E2W" depart="181"/>
    <vehicle id="right_172" type="SUMO_DEFAULT_TYPE" route="W2E" depart="182"/>
    <vehicle id="left_173" type="SUMO_DEFAULT_TYPE" route="E2W" depart="182"/>
    <vehicle id="downLT_174" type="SUMO_DEFAULT_TYPE" route="E2S" depart="182" color="1,0,0"/>
    <vehicle id="left_175" type="SUMO_DEFAULT_TYPE" route="E2W" depart="183"/>
    <vehicle id="down_176" type="SUMO_DEFAULT_TYPE" route="N2S" depart="184"/>
    <vehicle id="right_177" type="SUMO_DEFAULT_TYPE" route="W2E" depart="186"/>
    <vehicle id="left_178" type="SUMO_DEFAULT_TYPE" route="E2W" depart="186"/>
    <vehicle id="up_179" type="SUMO_DEFAULT_TYPE" route="S2N" depart="186"/>
    <vehicle id="right_180" type="SUMO_DEFAULT_TYPE" route="W2E" depart="187"/>
    <vehicle id="up_181" type="SUMO_DEFAULT_TYPE" route="S2N" depart="187"/>
    <vehicle id="right_182" type="SUMO_DEFAULT_TYPE" route="W2E" depart="189"/>
    <vehicle id="left_183" type="SUMO_DEFAULT_TYPE" route="E2W" depart="189"/>
    <vehicle id="down_184" type="SUMO_DEFAULT_TYPE" route="N2S" depart="189"/>
    <vehicle id="left_185" type="SUMO_DEFAULT_TYPE" route="E2W" depart="190"/>
    <vehicle id="right_186" type="SUMO_DEFAULT_TYPE" route="W2E" depart="191"/>
    <vehicle id="left_187" type="SUMO_DEFAULT_TYPE" route="E2W" depart="191"/>
    <vehicle id="left_188" type="SUMO_DEFAULT_TYPE" route="E2W" depart="192"/>
    <vehicle id="right_189" type="SUMO_DEFAULT_TYPE" route="W2E" depart="194"/>
    <vehicle id="up_190" type="SUMO_DEFAULT_TYPE" route="S2N" depart="194"/>
    <vehicle id="left_191" type="SUMO_DEFAULT_TYPE" route="E2W" depart="196"/>
    <vehicle id="right_192" type="SUMO_DEFAULT_TYPE" route="W2E" depart="197"/>
    <vehicle id="leftLT_193" type="SUMO_DEFAULT_TYPE" route="N2E" depart="197" color="1,0,0"/>
    <vehicle id="right_194" type="SUMO_DEFAULT_TYPE" route="W2E" depart="198"/>
    <vehicle id="left_195" type="SUMO_DEFAULT_TYPE" route="E2W" depart="199"/>
    <vehicle id="right_196" type="SUMO_DEFAULT_TYPE" route="W2E" depart="201"/>
    <vehicle id="left_197" type="SUMO_DEFAULT_TYPE" route="E2W" depart="201"/>
    <vehicle id="rightLT_198" type="SUMO_DEFAULT_TYPE" route="W2N" depart="201" color="1,0,0"/>
    <vehicle id="left_199" type="SUMO_DEFAULT_TYPE" route="E2W" depart="202"/>
    <vehicle id="right_200" type="SUMO_DEFAULT_TYPE" route="W2E" depart="203"/>
    <vehicle id="left_201" type="SUMO_DEFAULT_TYPE" route="E2W" depart="205"/>
    <vehicle id="left_202" type="SUMO_DEFAULT_TYPE" route="E2W" depart="206"/>
    <vehicle id="down_203" type="SUMO_DEFAULT_TYPE" route="N2S" depart="207"/>
    <vehicle id="right_204" type="SUMO_DEFAULT_TYPE" route="W2E" depart="209"/>
    <vehicle id="left_205" type="SUMO_DEFAULT_TYPE" route="E2W" depart="209"/>
    <vehicle id="left_206" type="SUMO_DEFAULT_TYPE" route="E2W" depart="210"/>
    <vehicle id="rightLT_207" type="SUMO_DEFAULT_TYPE" route="W2N" depart="210" color="1,0,0"/>
    <vehicle id="right_208" type="SUMO_DEFAULT_TYPE" route="W2E" depart="211"/>
    <vehicle id="right_209" type="SUMO_DEFAULT_TYPE" route="W2E" depart="212"/>
    <vehicle id="down_210" type="SUMO_DEFAULT_TYPE" route="N2S" depart="212"/>
    <vehicle id="right_211" type="SUMO_DEFAULT_TYPE" route="W2E" depart="214"/>
    <vehicle id="right_212" type="SUMO_DEFAULT_TYPE" route="W2E" depart="215"/>
    <vehicle id="upLT_213" type="SUMO_DEFAULT_TYPE" route="S2W" depart="215" color="1,0,0"/>
    <vehicle id="down_214" type="SUMO_DEFAULT_TYPE" route="N2S" depart="216"/>
    <vehicle id="right_215" type="SUMO_DEFAULT_TYPE" route="W2E" depart="217"/>
    <vehicle id="down_216" type="SUMO_DEFAULT_TYPE" route="N2S" depart="217"/>
    <vehicle id="left_217" type="SUMO_DEFAULT_TYPE" route="E2W" depart="218"/>
    <vehicle id="left_218" type="SUMO_DEFAULT_TYPE" route="E2W" depart="219"/>
    <vehicle id="right_219" type="SUMO_DEFAULT_TYPE" route="W2E" depart="220"/>
    <vehicle id="right_220" type="SUMO_DEFAULT_TYPE" route="W2E" depart="223"/>
    <vehicle id="left_221" type="SUMO_DEFAULT_TYPE" route="E2W" depart="223"/>
    <vehicle id="left_222" type="SUMO_DEFAULT_TYPE" route="E2W" depart="224"/>
    <vehicle id="left_223" type="SUMO_DEFAULT_TYPE" route="E2W" depart="225"/>
    <vehicle id="up_224" type="SUMO_DEFAULT_TYPE" route="S2N" depart="225"/>
    <vehicle id="up_225" type="SUMO_DEFAULT_TYPE" route="S2N" depart="228"/>
    <vehicle id="left_226" type="SUMO_DEFAULT_TYPE" route="E2W" depart="229"/>
    <vehicle id="left_227" type="SUMO_DEFAULT_TYPE" route="E2W" depart="232"/>
    <vehicle id="right_228" type="SUMO_DEFAULT_TYPE" route="W2E" depart="233"/>
    <vehicle id="up_229" type="SUMO_DEFAULT_TYPE" route="S2N" depart="234"/>
    <vehicle id="right_230" type="SUMO_DEFAULT_TYPE" route="W2E" depart="235"/>
    <vehicle id="left_231" type="SUMO_DEFAULT_TYPE" route="E2W" depart="237"/>
    <vehicle id="left_232" type="SUMO_DEFAULT_TYPE" route="E2W" depart="238"/>
    <vehicle id="right_233" type="SUMO_DEFAULT_TYPE" route="W2E" depart="242"/>
    <vehicle id="down_234" type="SUMO_DEFAULT_TYPE" route="N2S" depart="243"/>
    <vehicle id="right_235" type="SUMO_DEFAULT_TYPE" route="W2E" depart="244"/>
    <vehicle id="left_236" type="SUMO_DEFAULT_TYPE" route="E2W" depart="244"/>
    <vehicle id="left_237" type="SUMO_DEFAULT_TYPE" route="E2W" depart="246"/>
    <vehicle id="down_238" type="SUMO_DEFAULT_TYPE" route="N2S" depart="246"/>
    <vehicle id="right_239" type="SUMO_DEFAULT_TYPE" route="W2E" depart="247"/>
    <vehicle id="down_240" type="SUMO_DEFAULT_TYPE" route="N2S" depart="247"/>
    <vehicle id="left_241" type="SUMO_DEFAULT_TYPE" route="E2W" depart="249"/>
    <vehicle id="right_242" type="SUMO_DEFAULT_TYPE" route="W2E" depart="250"/>
    <vehicle id="left_243" type="SUMO_DEFAULT_TYPE" route="E2W" depart="251"/>
    <vehicle id="left_244" type="SUMO_DEFAULT_TYPE" route="E2W" depart="252"/>
    <vehicle id="up_245" type="SUMO_DEFAULT_TYPE" route="S2N" depart="252"/>
    <vehicle id="left_246" type="SUMO_DEFAULT_TYPE" route="E2W" depart="254"/>
    <vehicle id="down_247" type="SUMO_DEFAULT_TYPE" route="N2S" depart="254"/>
    <vehicle id="right_248" type="SUMO_DEFAULT_TYPE" route="W2E" depart="256"/>
    <vehicle id="left_249" type="SUMO_DEFAULT_TYPE" route="E2W" depart="256"/>
    <vehicle id="down_250" type="SUMO_DEFAULT_TYPE" route="N2S" depart="256"/>
    <vehicle id="right_251" type="SUMO_DEFAULT_TYPE" route="W2E" depart="257"/>
    <vehicle id="left_252" type="SUMO_DEFAULT_TYPE" route="E2W" depart="257"/>
    <vehicle id="left_253" type="SUMO_DEFAULT_TYPE" route="E2W" depart="258"/>
    <vehicle id="right_254" type="SUMO_DEFAULT_TYPE" route="W2E" depart="259"/>
    <vehicle id="left_255" type="SUMO_DEFAULT_TYPE" route="E2W" depart="259"/>
    <vehicle id="left_256" type="SUMO_DEFAULT_TYPE" route="E2W" depart="260"/>
    <vehicle id="right_257" type="SUMO_DEFAULT_TYPE" route="W2E" depart="261"/>
    <vehicle id="right_258" type="SUMO_DEFAULT_TYPE" route="W2E" depart="262"/>
    <vehicle id="downLT_259" type="SUMO_DEFAULT_TYPE" route="E2S" depart="264" color="1,0,0"/>
    <vehicle id="left_260" type="SUMO_DEFAULT_TYPE" route="E2W" depart="265"/>
    <vehicle id="up_261" type="SUMO_DEFAULT_TYPE" route="S2N" depart="265"/>
    <vehicle id="left_262" type="SUMO_DEFAULT_TYPE" route="E2W" depart="266"/>
    <vehicle id="right_263" type="SUMO_DEFAULT_TYPE" route="W2E" depart="267"/>
    <vehicle id="downLT_264" type="SUMO_DEFAULT_TYPE" route="E2S" depart="268" color="1,0,0"/>
    <vehicle id="right_265" type="SUMO_DEFAULT_TYPE" route="W2E" depart="271"/>
    <vehicle id="left_266" type="SUMO_DEFAULT_TYPE" route="E2W" depart="272"/>
    <vehicle id="left_267" type="SUMO_DEFAULT_TYPE" route="E2W" depart="273"/>
    <vehicle id="down_268" type="SUMO_DEFAULT_TYPE" route="N2S" depart="274"/>
    <vehicle id="upLT_269" type="SUMO_DEFAULT_TYPE" route="S2W" depart="274" color="1,0,0"/>
    <vehicle id="left_270" type="SUMO_DEFAULT_TYPE" route="E2W" depart="275"/>
    <vehicle id="right_271" type="SUMO_DEFAULT_TYPE" route="W2E" depart="276"/>
    <vehicle id="up_272" type="SUMO_DEFAULT_TYPE" route="S2N" depart="277"/>
    <vehicle id="left_273" type="SUMO_DEFAULT_TYPE" route="E2W" depart="278"/>
    <vehicle id="down_274" type="SUMO_DEFAULT_TYPE" route="N2S" depart="278"/>
    <vehicle id="right_275" type="SUMO_DEFAULT_TYPE" route="W2E" depart="279"/>
    <vehicle id="left_276" type="SUMO_DEFAULT_TYPE" route="E2W" depart="280"/>
    <vehicle id="up_277" type="SUMO_DEFAULT_TYPE" route="S2N" depart="280"/>
    <vehicle id="right_278" type="SUMO_DEFAULT_TYPE" route="W2E" depart="281"/>
    <vehicle id="right_279" type="SUMO_DEFAULT_TYPE" route="W2E" depart="282"/>
    <vehicle id="up_280" type="SUMO_DEFAULT_TYPE" route="S2N" depart="284"/>
    <vehicle id="right_281" type="SUMO_DEFAULT_TYPE" route="W2E" depart="285"/>
    <vehicle id="left_282" type="SUMO_DEFAULT_TYPE" route="E2W" depart="285"/>
    <vehicle id="down_283" type="SUMO_DEFAULT_TYPE" route="N2S" depart="287"/>
    <vehicle id="down_284" type="SUMO_DEFAULT_TYPE" route="N2S" depart="289"/>
    <vehicle id="right_285" type="SUMO_DEFAULT_TYPE" route="W2E" depart="290"/>
    <vehicle id="right_286" type="SUMO_DEFAULT_TYPE" route="W2E" depart="291"/>
    <vehicle id="left_287" type="SUMO_DEFAULT_TYPE" route="E2W" depart="292"/>
    <vehicle id="right_288" type="SUMO_DEFAULT_TYPE" route="W2E" depart="293"/>
    <vehicle id="left_289" type="SUMO_DEFAULT_TYPE" route="E2W" depart="293"/>
    <vehicle id="leftLT_290" type="SUMO_DEFAULT_TYPE" route="N2E" depart="294" color="1,0,0"/>
    <vehicle id="left_291" type="SUMO_DEFAULT_TYPE" route="E2W" depart="295"/>
    <vehicle id="upLT_292" type="SUMO_DEFAULT_TYPE" route="S2W" depart="295" color="1,0,0"/>
    <vehicle id="left_293" type="SUMO_DEFAULT_TYPE" route="E2W" depart="297"/>
    <vehicle id="left_294" type="SUMO_DEFAULT_TYPE" route="E2W" depart="300"/>
    <vehicle id="down_295" type="SUMO_DEFAULT_TYPE" route="N2S" depart="300"/>
    <vehicle id="right_296" type="SUMO_DEFAULT_TYPE" route="W2E" depart="301"/>
    <vehicle id="left_297" type="SUMO_DEFAULT_TYPE" route="E2W" depart="301"/>
    <vehicle id="down_298" type="SUMO_DEFAULT_TYPE" route="N2S" depart="302"/>
    <vehicle id="up_299" type="SUMO_DEFAULT_TYPE" route="S2N" depart="302"/>
    <vehicle id="up_300" type="SUMO_DEFAULT_TYPE" route="S2N" depart="304"/>
    <vehicle id="left_301" type="SUMO_DEFAULT_TYPE" route="E2W" depart="306"/>
    <vehicle id="up_302" type="SUMO_DEFAULT_TYPE" route="S2N" depart="306"/>
    <vehicle id="left_303" type="SUMO_DEFAULT_TYPE" route="E2W" depart="307"/>
    <vehicle id="left_304" type="SUMO_DEFAULT_TYPE" route="E2W" depart="308"/>
    <vehicle id="down_305" type="SUMO_DEFAULT_TYPE" route="N2S" depart="309"/>
    <vehicle id="up_306" type="SUMO_DEFAULT_TYPE" route="S2N" depart="309"/>
    <vehicle id="up_307" type="SUMO_DEFAULT_TYPE" route="S2N" depart="311"/>
    <vehicle id="left_308" type="SUMO_DEFAULT_TYPE" route="E2W" depart="312"/>
    <vehicle id="left_309" type="SUMO_DEFAULT_TYPE" route="E2W" depart="313"/>
    <vehicle id="left_310" type="SUMO_DEFAULT_TYPE" route="E2W" depart="314"/>
    <vehicle id="left_311" type="SUMO_DEFAULT_TYPE" route="E2W" depart="317"/>
    <vehicle id="right_312" type="SUMO_DEFAULT_TYPE" route="W2E" depart="318"/>
    <vehicle id="left_313" type="SUMO_DEFAULT_TYPE" route="E2W" depart="318"/>
    <vehicle id="upLT_314" type="SUMO_DEFAULT_TYPE" route="S2W" depart="318" color="1,0,0"/>
    <vehicle id="right_315" type="SUMO_DEFAULT_TYPE" route="W2E" depart="319"/>
    <vehicle id="left_316" type="SUMO_DEFAULT_TYPE" route="E2W" depart="321"/>
    <vehicle id="down_317" type="SUMO_DEFAULT_TYPE" route="N2S" depart="321"/>
    <vehicle id="right_318" type="SUMO_DEFAULT_TYPE" route="W2E" depart="322"/>
    <vehicle id="left_319" type="SUMO_DEFAULT_TYPE" route="E2W" depart="323"/>
    <vehicle id="right_320" type="SUMO_DEFAULT_TYPE" route="W2E" depart="324"/>
    <vehicle id="left_321" type="SUMO_DEFAULT_TYPE" route="E2W" depart="324"/>
    <vehicle id="up_322" type="SUMO_DEFAULT_TYPE" route="S2N" depart="326"/>
    <vehicle id="left_323" type="SUMO_DEFAULT_TYPE" route="E2W" depart="327"/>
    <vehicle id="downLT_324" type="SUMO_DEFAULT_TYPE" route="E2S" depart="327" color="1,0,0"/>
    <vehicle id="left_325" type="SUMO_DEFAULT_TYPE" route="E2W" depart="328"/>
    <vehicle id="left_326" type="SUMO_DEFAULT_TYPE" route="E2W" depart="329"/>
    <vehicle id="up_327" type="SUMO_DEFAULT_TYPE" route="S2N" depart="329"/>
    <vehicle id="right_328" type="SUMO_DEFAULT_TYPE" route="W2E" depart="330"/>
    <vehicle id="left_329" type="SUMO_DEFAULT_TYPE" route="E2W" depart="330"/>
    <vehicle id="up_330" type="SUMO_DEFAULT_TYPE" route="S2N" depart="330"/>
    <vehicle id="up_331" type="SUMO_DEFAULT_TYPE" route="S2N" depart="332"/>
    <vehicle id="rightLT_332" type="SUMO_DEFAULT_TYPE" route="W2N" depart="334" color="1,0,0"/>
    <vehicle id="left_333" type="SUMO_DEFAULT_TYPE" route="E2W" depart="336"/>
    <vehicle id="left_334" type="SUMO_DEFAULT_TYPE" route="E2W" depart="338"/>
    <vehicle id="down_335" type="SUMO_DEFAULT_TYPE" route="N2S" depart="339"/>
    <vehicle id="leftLT_336" type="SUMO_DEFAULT_TYPE" route="N2E" depart="342" color="1,0,0"/>
    <vehicle id="left_337" type="SUMO_DEFAULT_TYPE" route="E2W" depart="344"/>
    <vehicle id="down_338" type="SUMO_DEFAULT_TYPE" route="N2S" depart="344"/>
    <vehicle id="leftLT_339" type="SUMO_DEFAULT_TYPE" route="N2E" depart="344" color="1,0,0"/>
    <vehicle id="down_340" type="SUMO_DEFAULT_TYPE" route="N2S" depart="345"/>
    <vehicle id="downLT_341" type="SUMO_DEFAULT_TYPE" route="E2S" depart="345" color="1,0,0"/>
    <vehicle id="right_342" type="SUMO_DEFAULT_TYPE" route="W2E" depart="346"/>
    <vehicle id="left_343" type="SUMO_DEFAULT_TYPE" route="E2W" depart="346"/>
    <vehicle id="downLT_344" type="SUMO_DEFAULT_TYPE" route="E2S" depart="346" color="1,0,0"/>
    <vehicle id="right_345" type="SUMO_DEFAULT_TYPE" route="W2E" depart="347"/>
    <vehicle id="left_346" type="SUMO_DEFAULT_TYPE" route="E2W" depart="350"/>
    <vehicle id="right_347" type="SUMO_DEFAULT_TYPE" route="W2E" depart="351"/>
    <vehicle id="left_348" type="SUMO_DEFAULT_TYPE" route="E2W" depart="351"/>
    <vehicle id="right_349" type="SUMO_DEFAULT_TYPE" route="W2E" depart="353"/>
    <vehicle id="down_350" type="SUMO_DEFAULT_TYPE" route="N2S" depart="353"/>
    <vehicle id="left_351" type="SUMO_DEFAULT_TYPE" route="E2W" depart="354"/>
    <vehicle id="up_352" type="SUMO_DEFAULT_TYPE" route="S2N" depart="356"/>
    <vehicle id="right_353" type="SUMO_DEFAULT_TYPE" route="W2E" depart="357"/>
    <vehicle id="left_354" type="SUMO_DEFAULT_TYPE" route="E2W" depart="357"/>
    <vehicle id="down_355" type="SUMO_DEFAULT_TYPE" route="N2S" depart="357"/>
    <vehicle id="upLT_356" type="SUMO_DEFAULT_TYPE" route="S2W" depart="357" color="1,0,0"/>
    <vehicle id="right_357" type="SUMO_DEFAULT_TYPE" route="W2E" depart="358"/>
    <vehicle id="left_358" type="SUMO_DEFAULT_TYPE" route="E2W" depart="360"/>
    <vehicle id="left_359" type="SUMO_DEFAULT_TYPE" route="E2W" depart="361"/>
    <vehicle id="right_360" type="SUMO_DEFAULT_TYPE" route="W2E" depart="362"/>
    <vehicle id="down_361" type="SUMO_DEFAULT_TYPE" route="N2S" depart="363"/>
    <vehicle id="left_362" type="SUMO_DEFAULT_TYPE" route="E2W" depart="364"/>
    <vehicle id="left_363" type="SUMO_DEFAULT_TYPE" route="E2W" depart="365"/>
    <vehicle id="right_364" type="SUMO_DEFAULT_TYPE" route="W2E" depart="366"/>