<routes>
    <vType id="SUMO_DEFAULT_TYPE" accel="0.8" decel="4.5" sigma="0.5" length="5" minGap="2" maxSpeed="70"/>
    <vType id="CAV_TYPE" accel="0.8" decel="4.5" sigma="0.5" length="5" minGap="2" maxSpeed="70"/>

        <route id="W2E" edges="51o 1i 2o 52i" />
        <route id="E2W" edges="52o 2i 1o 51i" />
        <route id="N2S" edges="54o 4i 3o 53i" />
        <route id="S2N" edges="53o 3i 4o 54i" />

        <route id="W2N" edges="51o 1i 4o 54i" />
        <route id="N2E" edges="54o 4i 2o 52i" />
        <route id="E2S" edges="52o 2i 3o 53i" />
        <route id="S2W" edges="53o 3i 1o 51i" />

        <route id="W2S" edges="51o 1i 3o 53i" />
        <route id="S2E" edges="53o 3i 2o 52i" />
        <route id="E2N" edges="52o 2i 4o 54i" />
        <route id="N2W" edges="54o 4i 1o 51i" />


    <vehicle id="NE_0" type="CAV_TYPE" route="W2E" depart="0"/>
    <vehicle id="ES_1" type="CAV_TYPE" route="W2E" depart="1"/>
    <vehicle id="NS_2" type="CAV_TYPE" route="W2E" depart="2"/>
    <vehicle id="WN_3" type="CAV_TYPE" route="W2E" depart="2"/>
    <vehicle id="WN_4" type="CAV_TYPE" route="W2E" depart="4"/>
    <vehicle id="WE_5" type="SUMO_DEFAULT_TYPE" route="W2E" depart="6"/>
    <vehicle id="EW_6" type="CAV_TYPE" route="W2E" depart="6"/>
    <vehicle id="EW_7" type="CAV_TYPE" route="W2E" depart="7"/>
    <vehicle id="WN_8" type="CAV_TYPE" route="W2E" depart="7"/>
    <vehicle id="WN_9" type="CAV_TYPE" route="W2E" depart="9"/>
    <vehicle id="ES_10" type="CAV_TYPE" route="W2E" depart="10"/>
    <vehicle id="WE_11" type="CAV_TYPE" route="W2E" depart="11"/>
    <vehicle id="WE_12" type="CAV_TYPE" route="W2E" depart="12"/>
    <vehicle id="EW_13" type="CAV_TYPE" route="W2E" depart="13"/>
    <vehicle id="EW_14" type="CAV_TYPE" route="W2E" depart="14"/>
    <vehicle id="NS_15" type="CAV_TYPE" route="W2E" depart="14"/>
    <vehicle id="WN_16" type="CAV_TYPE" route="W2E" depart="14"/>
    <vehicle id="SN_17" type="CAV_TYPE" route="W2E" depart="15"/>
    <vehicle id="ES_18" type="CAV_TYPE" route="W2E" depart="16"/>
    <vehicle id="WE_19" type="CAV_TYPE" route="W2E" depart="17"/>
    <vehicle id="WE_20" type="CAV_TYPE" route="W2E" depart="18"/>
    <vehicle id="EW_21" type="CAV_TYPE" route="W2E" depart="20"/>
    <vehicle id="NS_22" type="CAV_TYPE" route="W2E" depart="23"/>
    <vehicle id="SN_23" type="CAV_TYPE" route="W2E" depart="23"/>
    <vehicle id="SN_24" type="CAV_TYPE" route="W2E" depart="25"/>
    <vehicle id="NE_25" type="CAV_TYPE" route="W2E" depart="25"/>
    <vehicle id="EW_26" type="CAV_TYPE" route="W2E" depart="27"/>
    <vehicle id="NS_27" type="CAV_TYPE" route="W2E" depart="28"/>
    <vehicle id="SN_28" type="CAV_TYPE" route="W2E" depart="28"/>
    <vehicle id="WE_29" type="CAV_TYPE" route="W2E" depart="32"/>
    <vehicle id="WE_30" type="CAV_TYPE" route="W2E" depart="35"/>
    <vehicle id="WN_31" type="CAV_TYPE" route="W2E" depart="36"/>
    <vehicle id="WE_32" type="SUMO_DEFAULT_TYPE" route="W2E" depart="37"/>
    <vehicle id="EW_33" type="CAV_TYPE" route="W2E" depart="39"/>
    <vehicle id="NS_34" type="CAV_TYPE" route="W2E" depart="40"/>
    <vehicle id="WN_35" type="SUMO_DEFAULT_TYPE" route="W2E" depart="41"/>
    <vehicle id="NS_36" type="CAV_TYPE" route="W2E" depart="43"/>
    <vehicle id="WE_37" type="CAV_TYPE" route="W2E" depart="44"/>
    <vehicle id="SN_38" type="CAV_TYPE" route="W2E" depart="45"/>
    <vehicle id="WN_39" type="CAV_TYPE" route="W2E" depart="45"/>
    <vehicle id="WN_40" type="CAV_TYPE" route="W2E" depart="48"/>
    <vehicle id="WE_41" type="CAV_TYPE" route="W2E" depart="54"/>
    <vehicle id="WN_42" type="SUMO_DEFAULT_TYPE" route="W2E" depart="54"/>
    <vehicle id="NS_43" type="CAV_TYPE" route="W2E" depart="55"/>
    <vehicle id="SN_44" type="CAV_TYPE" route="W2E" depart="57"/>
    <vehicle id="NE_45" type="CAV_TYPE" route="W2E" depart="58"/>
    <vehicle id="SN_46" type="CAV_TYPE" route="W2E" depart="59"/>
    <vehicle id="EW_47" type="CAV_TYPE" route="W2E" depart="60"/>
    <vehicle id="WN_48" type="CAV_TYPE" route="W2E" depart="60"/>
    <vehicle id="WE_49" type="CAV_TYPE" route="W2E" depart="61"/>
    <vehicle id="WE_50" type="CAV_TYPE" route="W2E" depart="62"/>
    <vehicle id="EW_51" type="CAV_TYPE" route="W2E" depart="66"/>
    <vehicle id="NS_52" type="CAV_TYPE" route="W2E" depart="67"/>
    <vehicle id="NE_53" type="CAV_TYPE" route="W2E" depart="67"/>
    <vehicle id="SN_54" type="CAV_TYPE" route="W2E" depart="68"/>
    <vehicle id="SW_55" type="CAV_TYPE" route="W2E" depart="68"/>
    <vehicle id="NS_56" type="CAV_TYPE" route="W2E" depart="69"/>
    <vehicle id="WE_57" type="CAV_TYPE" route="W2E" depart="71"/>
    <vehicle id="WE_58" type="CAV_TYPE" route="W2E" depart="72"/>
    <vehicle id="EW_59" type="CAV_TYPE" route="W2E" depart="72"/>
    <vehicle id="EW_60" type="CAV_TYPE" route="W2E" depart="75"/>
    <vehicle id="SN_61" type="CAV_TYPE" route="W2E" depart="76"/>
    <vehicle id="WE_62" type="CAV_TYPE" route="W2E" depart="77"/>
    <vehicle id="SN_63" type="CAV_TYPE" route="W2E" depart="78"/>
    <vehicle id="EW_64" type="CAV_TYPE" route="W2E" depart="82"/>
    <vehicle id="SN_65" type="CAV_TYPE" route="W2E" depart="82"/>
    <vehicle id="WN_66" type="CAV_TYPE" route="W2E" depart="82"/>
    <vehicle id="SN_67" type="CAV_TYPE" route="W2E" depart="83"/>
    <vehicle id="ES_68" type="CAV_TYPE" route="W2E" depart="83"/>
    <vehicle id="NS_69" type="CAV_TYPE" route="W2E" depart="87"/>
    <vehicle id="ES_70" type="CAV_TYPE" route="W2E" depart="90"/>
    <vehicle id="NS_71" type="CAV_TYPE" route="W2E" depart="93"/>
    <vehicle id="SN_72" type="SUMO_DEFAULT_TYPE" route="W2E" depart="94"/>
    <vehicle id="WN_73" type="SUMO_DEFAULT_TYPE" route="W2E" depart="94"/>
    <vehicle id="NS_74" type="CAV_TYPE" route="W2E" depart="95"/>
    <vehicle id="WN_75" type="CAV_TYPE" route="W2E" depart="96"/>
    <vehicle id="NS_76" type="CAV_TYPE" route="W2E" depart="97"/>
    <vehicle id="ES_77" type="SUMO_DEFAULT_TYPE" route="W2E" depart="99"/>
    <vehicle id="ES_78" type="CAV_TYPE" route="W2E" depart="100"/>
    <vehicle id="SN_79" type="CAV_TYPE" route="W2E" depart="101"/>
    <vehicle id="EW_80" type="CAV_TYPE" route="W2E" depart="102"/>
    <vehicle id="WE_81" type="CAV_TYPE" route="W2E" depart="103"/>
    <vehicle id="SW_82" type="CAV_TYPE" route="W2E" depart="103"/>
    <vehicle id="EW_83" type="CAV_TYPE" route="W2E" depart="104"/>
    <vehicle id="WE_84" type="CAV_TYPE" route="W2E" depart="105"/>
    <vehicle id="EW_85" type="CAV_TYPE" route="W2E" depart="107"/>
    <vehicle id="SN_86" type="CAV_TYPE" route="W2E" depart="107"/>
    <vehicle id="WE_87" type="CAV_TYPE" route="W2E" depart="108"/>
    <vehicle id="NS_88" type="CAV_TYPE" route="W2E" depart="110"/>
    <vehicle id="SN_89" type="CAV_TYPE" route="W2E" depart="110"/>
    <vehicle id="WN_90" type="CAV_TYPE" route="W2E" depart="110"/>
    <vehicle id="WE_91" type="CAV_TYPE" route="W2E" depart="111"/>
    <vehicle id="NE92" type="SUMO_DEFAULT_TYPE" route="W2E" depart="111"/>
    <vehicle id="WE_93" type="CAV_TYPE" route="W2E" depart="113"/>
    <vehicle id="NE94" type="SUMO_DEFAULT_TYPE" route="W2E" depart="114"/>
    <vehicle id="ES_95" type="CAV_TYPE" route="W2E" depart="114"/>
    <vehicle id="WE_96" type="CAV_TYPE" route="W2E" depart="116"/>
    <vehicle id="NS_97" type="CAV_TYPE" route="W2E" depart="116"/>
    <vehicle id="SN_98" type="CAV_TYPE" route="W2E" depart="116"/>
    <vehicle id="NS_99" type="CAV_TYPE" route="W2E" depart="118"/>
    <vehicle id="SN_100" type="CAV_TYPE" route="W2E" depart="119"/>
    <vehicle id="EW_101" type="CAV_TYPE" route="W2E" depart="121"/>
    <vehicle id="NS_102" type="CAV_TYPE" route="W2E" depart="121"/>
    <vehicle id="NS_103" type="CAV_TYPE" route="W2E" depart="122"/>
    <vehicle id="WE_104" type="CAV_TYPE" route="W2E" depart="123"/>
    <vehicle id="NS_105" type="CAV_TYPE" route="W2E" depart="123"/>
    <vehicle id="SN_106" type="CAV_TYPE" route="W2E" depart="123"/>
    <vehicle id="SW_107" type="CAV_TYPE" route="W2E" depart="123"/>
    <vehicle id="NS_108" type="CAV_TYPE" route="W2E" depart="124"/>
    <vehicle id="SN_109" type="SUMO_DEFAULT_TYPE" route="W2E" depart="126"/>
    <vehicle id="WE_110" type="CAV_TYPE" route="W2E" depart="127"/>
    <vehicle id="NS_111" type="CAV_TYPE" route="W2E" depart="127"/>
    <vehicle id="NS_112" type="CAV_TYPE" route="W2E" depart="128"/>
    <vehicle id="ES_113" type="CAV_TYPE" route="W2E" depart="129"/>
    <vehicle id="NS_114" type="CAV_TYPE" route="W2E" depart="131"/>
    <vehicle id="SN_115" type="CAV_TYPE" route="W2E" depart="132"/>
    <vehicle id="WE_116" type="CAV_TYPE" route="W2E" depart="133"/>
    <vehicle id="SN_117" type="CAV_TYPE" route="W2E" depart="134"/>
    <vehicle id="WN_118" type="CAV_TYPE" route="W2E" depart="134"/>
    <vehicle id="NS_119" type="CAV_TYPE" route="W2E" depart="135"/>
    <vehicle id="WE_120" type="CAV_TYPE" route="W2E" depart="136"/>
    <vehicle id="EW_121" type="CAV_TYPE" route="W2E" depart="137"/>
    <vehicle id="NS_122" type="CAV_TYPE" route="W2E" depart="137"/>
    <vehicle id="ES_123" type="CAV_TYPE" route="W2E" depart="137"/>
    <vehicle id="SN_124" type="CAV_TYPE" route="W2E" depart="139"/>
    <vehicle id="EW_125" type="CAV_TYPE" route="W2E" depart="140"/>
    <vehicle id="ES_126" type="CAV_TYPE" route="W2E" depart="140"/>
    <vehicle id="ES_127" type="CAV_TYPE" route="W2E" depart="142"/>
    <vehicle id="WE_128" type="CAV_TYPE" route="W2E" depart="144"/>
    <vehicle id="WN_129" type="CAV_TYPE" route="W2E" depart="144"/>
    <vehicle id="NE_130" type="CAV_TYPE" route="W2E" depart="144"/>
    <vehicle id="EW_131" type="SUMO_DEFAULT_TYPE" route="W2E" depart="145"/>
    <vehicle id="EW_132" type="CAV_TYPE" route="W2E" depart="149"/>
    <vehicle id="NE_133" type="CAV_TYPE" route="W2E" depart="149"/>
    <vehicle id="EW_134" type="CAV_TYPE" route="W2E" depart="150"/>
    <vehicle id="WE_135" type="CAV_TYPE" route="W2E" depart="151"/>
    <vehicle id="ES_136" type="CAV_TYPE" route="W2E" depart="151"/>
    <vehicle id="WE_137" type="CAV_TYPE" route="W2E" depart="152"/>
    <vehicle id="SN_138" type="CAV_TYPE" route="W2E" depart="153"/>
    <vehicle id="SN_139" type="CAV_TYPE" route="W2E" depart="154"/>
    <vehicle id="WN_140" type="CAV_TYPE" route="W2E" depart="154"/>
    <vehicle id="SN_141" type="CAV_TYPE" route="W2E" depart="155"/>
    <vehicle id="WE_142" type="CAV_TYPE" route="W2E" depart="156"/>
    <vehicle id="SN_143" type="CAV_TYPE" route="W2E" depart="159"/>
    <vehicle id="SN_144" type="CAV_TYPE" route="W2E" depart="163"/>
    <vehicle id="ES_145" type="SUMO_DEFAULT_TYPE" route="W2E" depart="166"/>
    <vehicle id="EW_146" type="CAV_TYPE" route="W2E" depart="167"/>
    <vehicle id="SN_147" type="CAV_TYPE" route="W2E" depart="168"/>
    <vehicle id="WE_148" type="CAV_TYPE" route="W2E" depart="169"/>
    <vehicle id="WE_149" type="CAV_TYPE" route="W2E" depart="171"/>
    <vehicle id="SN_150" type="SUMO_DEFAULT_TYPE" route="W2E" depart="171"/>
    <vehicle id="NS_151" type="CAV_TYPE" route="W2E" depart="173"/>
    <vehicle id="ES_152" type="CAV_TYPE" route="W2E" depart="174"/>
    <vehicle id="WE_153" type="CAV_TYPE" route="W2E" depart="175"/>
    <vehicle id="WE_154" type="CAV_TYPE" route="W2E" depart="177"/>
    <vehicle id="WN_155" type="CAV_TYPE" route="W2E" depart="178"/>
    <vehicle id="NS_156" type="CAV_TYPE" route="W2E" depart="179"/>
    <vehicle id="NS_157" type="CAV_TYPE" route="W2E" depart="180"/>
    <vehicle id="WE_158" type="CAV_TYPE" route="W2E" depart="183"/>
    <vehicle id="ES_159" type="CAV_TYPE" route="W2E" depart="183"/>
    <vehicle id="WE_160" type="CAV_TYPE" route="W2E" depart="184"/>
    <vehicle id="EW_161" type="CAV_TYPE" route="W2E" depart="184"/>
    <vehicle id="SN_162" type="SUMO_DEFAULT_TYPE" route="W2E" depart="184"/>
    <vehicle id="WE_163" type="CAV_TYPE" route="W2E" depart="185"/>
    <vehicle id="ES_164" type="CAV_TYPE" route="W2E" depart="186"/>
    <vehicle id="WE_165" type="CAV_TYPE" route="W2E" depart="187"/>
    <vehicle id="EW_166" type="SUMO_DEFAULT_TYPE" route="W2E" depart="188"/>
    <vehicle id="WN_167" type="CAV_TYPE" route="W2E" depart="188"/>
    <vehicle id="SN_168" type="CAV_TYPE" route="W2E" depart="190"/>
    <vehicle id="WE_169" type="CAV_TYPE" route="W2E" depart="192"/>
    <vehicle id="NS_170" type="CAV_TYPE" route="W2E" depart="195"/>
    <vehicle id="WN_171" type="CAV_TYPE" route="W2E" depart="196"/>
    <vehicle id="SN_172" type="CAV_TYPE" route="W2E" depart="197"/>
    <vehicle id="WE_173" type="CAV_TYPE" route="W2E" depart="198"/>
    <vehicle id="NS_174" type="CAV_TYPE" route="W2E" depart="198"/>
    <vehicle id="WN_175" type="CAV_TYPE" route="W2E" depart="199"/>
    <vehicle id="WE_176" type="SUMO_DEFAULT_TYPE" route="W2E" depart="201"/>
    <vehicle id="NS_177" type="CAV_TYPE" route="W2E" depart="201"/>
    <vehicle id="SN_178" type="CAV_TYPE" route="W2E" depart="203"/>
    <vehicle id="NE_179" type="CAV_TYPE" route="W2E" depart="203"/>
    <vehicle id="EW_180" type="SUMO_DEFAULT_TYPE" route="W2E" depart="205"/>
    <vehicle id="EW_181" type="CAV_TYPE" route="W2E" depart="206"/>
    <vehicle id="WN_182" type="CAV_TYPE" route="W2E" depart="207"/>
    <vehicle id="WN_183" type="CAV_TYPE" route="W2E" depart="208"/>
    <vehicle id="WE_184" type="CAV_TYPE" route="W2E" depart="209"/>
    <vehicle id="SN_185" type="SUMO_DEFAULT_TYPE" route="W2E" depart="209"/>
    <vehicle id="WE_186" type="SUMO_DEFAULT_TYPE" route="W2E" depart="210"/>
    <vehicle id="WN_187" type="CAV_TYPE" route="W2E" depart="213"/>
    <vehicle id="ES_188" type="CAV_TYPE" route="W2E" depart="213"/>
    <vehicle id="NS_189" type="CAV_TYPE" route="W2E" depart="214"/>
    <vehicle id="SN_190" type="CAV_TYPE" route="W2E" depart="215"/>
    <vehicle id="WE_191" type="CAV_TYPE" route="W2E" depart="216"/>
    <vehicle id="SN_192" type="CAV_TYPE" route="W2E" depart="216"/>
    <vehicle id="ES_193" type="CAV_TYPE" route="W2E" depart="216"/>
    <vehicle id="NS_194" type="SUMO_DEFAULT_TYPE" route="W2E" depart="217"/>
    <vehicle id="NE_195" type="CAV_TYPE" route="W2E" depart="218"/>
    <vehicle id="NS_196" type="CAV_TYPE" route="W2E" depart="221"/>
    <vehicle id="SN_197" type="CAV_TYPE" route="W2E" depart="221"/>
    <vehicle id="WE_198" type="SUMO_DEFAULT_TYPE" route="W2E" depart="223"/>
    <vehicle id="EW_199" type="CAV_TYPE" route="W2E" depart="223"/>
    <vehicle id="ES_200" type="CAV_TYPE" route="W2E" depart="223"/>
    <vehicle id="EW_201" type="CAV_TYPE" route="W2E" depart="224"/>
    <vehicle id="NS_202" type="CAV_TYPE" route="W2E" depart="224"/>
    <vehicle id="SN_203" type="CAV_TYPE" route="W2E" depart="224"/>
    <vehicle id="NS_204" type="CAV_TYPE" route="W2E" depart="226"/>
    <vehicle id="EW_205" type="CAV_TYPE" route="W2E" depart="227"/>
    <vehicle id="WE_206" type="CAV_TYPE" route="W2E" depart="228"/>
    <vehicle id="NS_207" type="CAV_TYPE" route="W2E" depart="228"/>
    <vehicle id="ES_208" type="CAV_TYPE" route="W2E" depart="228"/>
    <vehicle id="WE_209" type="CAV_TYPE" route="W2E" depart="231"/>
    <vehicle id="ES_210" type="CAV_TYPE" route="W2E" depart="231"/>
    <vehicle id="WN_211" type="CAV_TYPE" route="W2E" depart="232"/>
    <vehicle id="NS_212" type="SUMO_DEFAULT_TYPE" route="W2E" depart="233"/>
    <vehicle id="SW_213" type="SUMO_DEFAULT_TYPE" route="W2E" depart="233"/>
    <vehicle id="WN_214" type="CAV_TYPE" route="W2E" depart="234"/>
    <vehicle id="SW_215" type="CAV_TYPE" route="W2E" depart="236"/>
    <vehicle id="WE_216" type="CAV_TYPE" route="W2E" depart="237"/>
    <vehicle id="NS_217" type="CAV_TYPE" route="W2E" depart="237"/>
    <vehicle id="NS_218" type="CAV_TYPE" route="W2E" depart="238"/>
    <vehicle id="EW_219" type="CAV_TYPE" route="W2E" depart="239"/>
    <vehicle id="WE_220" type="CAV_TYPE" route="W2E" depart="242"/>
    <vehicle id="EW_221" type="CAV_TYPE" route="W2E" depart="244"/>
    <vehicle id="SN_222" type="CAV_TYPE" route="W2E" depart="244"/>
    <vehicle id="SN_223" type="CAV_TYPE" route="W2E" depart="246"/>
    <vehicle id="ES_224" type="CAV_TYPE" route="W2E" depart="246"/>
    <vehicle id="EW_225" type="CAV_TYPE" route="W2E" depart="249"/>
    <vehicle id="NS_226" type="CAV_TYPE" route="W2E" depart="250"/>
    <vehicle id="ES_227" type="CAV_TYPE" route="W2E" depart="252"/>
    <vehicle id="WE_228" type="CAV_TYPE" route="W2E" depart="254"/>
    <vehicle id="SN_229" type="CAV_TYPE" route="W2E" depart="254"/>
    <vehicle id="NS_230" type="CAV_TYPE" route="W2E" depart="255"/>
    <vehicle id="SN_231" type="CAV_TYPE" route="W2E" depart="255"/>
    <vehicle id="WE_232" type="CAV_TYPE" route="W2E" depart="257"/>
    <vehicle id="NE_233" type="CAV_TYPE" route="W2E" depart="258"/>
    <vehicle id="SN_234" type="CAV_TYPE" route="W2E" depart="259"/>
    <vehicle id="EW_235" type="CAV_TYPE" route="W2E" depart="261"/>
    <vehicle id="NS_236" type="SUMO_DEFAULT_TYPE" route="W2E" depart="261"/>
    <vehicle id="SN_237" type="CAV_TYPE" route="W2E" depart="264"/>
    <vehicle id="EW_238" type="CAV_TYPE" route="W2E" depart="266"/>
    <vehicle id="WN_239" type="CAV_TYPE" route="W2E" depart="266"/>
    <vehicle id="EW_240" type="CAV_TYPE" route="W2E" depart="267"/>
    <vehicle id="WN_241" type="CAV_TYPE" route="W2E" depart="267"/>
    <vehicle id="NE242" type="SUMO_DEFAULT_TYPE" route="W2E" depart="267"/>
    <vehicle id="NE_243" type="CAV_TYPE" route="W2E" depart="268"/>
    <vehicle id="EW_244" type="CAV_TYPE" route="W2E" depart="272"/>
    <vehicle id="SN_245" type="CAV_TYPE" route="W2E" depart="272"/>
    <vehicle id="ES_246" type="CAV_TYPE" route="W2E" depart="272"/>
    <vehicle id="WE_247" type="CAV_TYPE" route="W2E" depart="274"/>
    <vehicle id="SN_248" type="CAV_TYPE" route="W2E" depart="274"/>
    <vehicle id="SN_249" type="CAV_TYPE" route="W2E" depart="275"/>
    <vehicle id="WE_250" type="CAV_TYPE" route="W2E" depart="276"/>
    <vehicle id="EW_251" type="CAV_TYPE" route="W2E" depart="276"/>
    <vehicle id="NS_252" type="CAV_TYPE" route="W2E" depart="277"/>
    <vehicle id="WE_253" type="SUMO_DEFAULT_TYPE" route="W2E" depart="279"/>
    <vehicle id="NS_254" type="CAV_TYPE" route="W2E" depart="280"/>
    <vehicle id="SW_255" type="SUMO_DEFAULT_TYPE" route="W2E" depart="280"/>
    <vehicle id="SN_256" type="SUMO_DEFAULT_TYPE" route="W2E" depart="281"/>
    <vehicle id="NS_257" type="CAV_TYPE" route="W2E" depart="285"/>
    <vehicle id="NE_258" type="CAV_TYPE" route="W2E" depart="285"/>
    <vehicle id="SN_259" type="CAV_TYPE" route="W2E" depart="287"/>
    <vehicle id="WE_260" type="CAV_TYPE" route="W2E" depart="288"/>
    <vehicle id="NS_261" type="SUMO_DEFAULT_TYPE" route="W2E" depart="289"/>
    <vehicle id="NS_262" type="SUMO_DEFAULT_TYPE" route="W2E" depart="290"/>
    <vehicle id="ES_263" type="CAV_TYPE" route="W2E" depart="290"/>
    <vehicle id="WN_264" type="CAV_TYPE" route="W2E" depart="293"/>
    <vehicle id="ES_265" type="CAV_TYPE" route="W2E" depart="293"/>
    <vehicle id="EW_266" type="CAV_TYPE" route="W2E" depart="294"/>
    <vehicle id="SN_267" type="CAV_TYPE" route="W2E" depart="294"/>
    <vehicle id="EW_268" type="CAV_TYPE" route="W2E" depart="295"/>
    <vehicle id="NS_269" type="CAV_TYPE" route="W2E" depart="295"/>
    <vehicle id="SN_270" type="CAV_TYPE" route="W2E" depart="296"/>
    <vehicle id="ES_271" type="CAV_TYPE" route="W2E" depart="296"/>
    <vehicle id="NS_272" type="SUMO_DEFAULT_TYPE" route="W2E" depart="297"/>
    <vehicle id="ES_273" type="CAV_TYPE" route="W2E" depart="298"/>
    <vehicle id="NS_274" type="CAV_TYPE" route="W2E" depart="300"/>
    <vehicle id="SN_275" type="CAV_TYPE" route="W2E" depart="301"/>
    <vehicle id="ES_276" type="CAV_TYPE" route="W2E" depart="302"/>
    <vehicle id="WE_277" type="CAV_TYPE" route="W2E" depart="303"/>
    <vehicle id="WE_278" type="CAV_TYPE" route="W2E" depart="304"/>
    <vehicle id="WN_279" type="SUMO_DEFAULT_TYPE" route="W2E" depart="306"/>
    <vehicle id="WE_280" type="CAV_TYPE" route="W2E" depart="307"/>
    <vehicle id="EW_281" type="CAV_TYPE" route="W2E" depart="309"/>
    <vehicle id="WN_282" type="CAV_TYPE" route="W2E" depart="310"/>
    <vehicle id="NS_283" type="CAV_TYPE" route="W2E" depart="312"/>
    <vehicle id="WN_284" type="CAV_TYPE" route="W2E" depart="315"/>
    <vehicle id="WE_285" type="CAV_TYPE" route="W2E" depart="316"/>
    <vehicle id="ES_286" type="CAV_TYPE" route="W2E" depart="316"/>
    <vehicle id="WN_287" type="CAV_TYPE" route="W2E" depart="318"/>
    <vehicle id="NS_288" type="CAV_TYPE" route="W2E" depart="319"/>
    <vehicle id="WE_289" type="CAV_TYPE" route="W2E" depart="320"/>
    <vehicle id="ES_290" type="CAV_TYPE" route="W2E" depart="320"/>
    <vehicle id="ES_291" type="CAV_TYPE" route="W2E" depart="322"/>
    <vehicle id="SN_292" type="CAV_TYPE" route="W2E" depart="326"/>
    <vehicle id="WE_293" type="CAV_TYPE" route="W2E" depart="327"/>
    <vehicle id="NS_294" type="CAV_TYPE" route="W2E" depart="327"/>
    <vehicle id="ES_295" type="CAV_TYPE" route="W2E" depart="327"/>
    <vehicle id="WN_296" type="CAV_TYPE" route="W2E" depart="329"/>
    <vehicle id="NE_297" type="CAV_TYPE" route="W2E" depart="330"/>
    <vehicle id="EW_298" type="SUMO_DEFAULT_TYPE" route="W2E" depart="332"/>
    <vehicle id="WN_299" type="CAV_TYPE" route="W2E" depart="334"/>
    <vehicle id="NS_300" type="CAV_TYPE" route="W2E" depart="336"/>
    <vehicle id="SN_301" type="CAV_TYPE" route="W2E" depart="338"/>
    <vehicle id="EW_302" type="CAV_TYPE" route="W2E" depart="339"/>
    <vehicle id="ES_303" type="CAV_TYPE" route="W2E" depart="339"/>
    <vehicle id="WE_304" type="CAV_TYPE" route="W2E" depart="340"/>
    <vehicle id="WN_305" type="CAV_TYPE" route="W2E" depart="343"/>
    <vehicle id="EW_306" type="CAV_TYPE" route="W2E" depart="345"/>
    <vehicle id="ES_307" type="CAV_TYPE" route="W2E" depart="346"/>
    <vehicle id="EW_308" type="CAV_TYPE" route="W2E" depart="347"/>
    <vehicle id="SN_309" type="CAV_TYPE" route="W2E" depart="348"/>
    <vehicle id="EW_310" type="CAV_TYPE" route="W2E" depart="349"/>
    <vehicle id="ES_311" type="CAV_TYPE" route="W2E" depart="349"/>
    <vehicle id="WE_312" type="CAV_TYPE" route="W2E" depart="350"/>
    <vehicle id="NE_313" type="CAV_TYPE" route="W2E" depart="350"/>
    <vehicle id="EW_314" type="CAV_TYPE" route="W2E" depart="351"/>
    <vehicle id="WE_315" type="CAV_TYPE" route="W2E" depart="352"/>
    <vehicle id="EW_316" type="CAV_TYPE" route="W2E" depart="354"/>
    <vehicle id="SN_317" type="CAV_TYPE" route="W2E" depart="355"/>
    <vehicle id="ES_318" type="SUMO_DEFAULT_TYPE" route="W2E" depart="355"/>
    <vehicle id="EW_319" type="CAV_TYPE" route="W2E" depart="356"/>
    <vehicle id="NS_320" type="CAV_TYPE" route="W2E" depart="359"/>
    <vehicle id="WE_321" type="CAV_TYPE" route="W2E" depart="360"/>
    <vehicle id="WN_322" type="CAV_TYPE" route="W2E" depart="360"/>
    <vehicle id="NE_323" type="CAV_TYPE" route="W2E" depart="360"/>
    <vehicle id="SN_324" type="CAV_TYPE" route="W2E" depart="361"/>
    <vehicle id="WE_325" type="CAV_TYPE" route="W2E" depart="362"/>
    <vehicle id="EW_326" type="CAV_TYPE" route="W2E" depart="366"/>
    <vehicle id="NE_327" type="CAV_TYPE" route="W2E" depart="366"/>
    <vehicle id="WN_328" type="CAV_TYPE" route="W2E" depart="367"/>
    <vehicle id="ES_329" type="CAV_TYPE" route="W2E" depart="367"/>
    <vehicle id="NS_330" type="CAV_TYPE" route="W2E" depart="368"/>
    <vehicle id="SN_331" type="CAV_TYPE" route="W2E" depart="369"/>
    <vehicle id="NS_332" type="CAV_TYPE" route="W2E" depart="370"/>
    <vehicle id="SN_333" type="CAV_TYPE" route="W2E" depart="370"/>
    <vehicle id="NE_334" type="CAV_TYPE" route="W2E" depart="370"/>
    <vehicle id="ES_335" type="CAV_TYPE" route="W2E" depart="370"/>
    <vehicle id="EW_336" type="CAV_TYPE" route="W2E" depart="371"/>
    <vehicle id="ES_337" type="CAV_TYPE" route="W2E" depart="372"/>
    <vehicle id="EW_338" type="CAV_TYPE" route="W2E" depart="373"/>
    <vehicle id="SN_339" type="SUMO_DEFAULT_TYPE" route="W2E" depart="373"/>
    <vehicle id="WE_340" type="CAV_TYPE" route="W2E" depart="375"/>
    <vehicle id="ES_341" type="SUMO_DEFAULT_TYPE" route="W2E" depart="375"/>
    <vehicle id="SN_342" type="CAV_TYPE" route="W2E" depart="376"/>
    <vehicle id="WN_343" type="CAV_TYPE" route="W2E" depart="377"/>
    <vehicle id="EW_344" type="CAV_TYPE" route="W2E" depart="378"/>
    <vehicle id="NS_345" type="CAV_TYPE" route="W2E" depart="379"/>
    <vehicle id="NS_346" type="CAV_TYPE" route="W2E" depart="380"/>
    <vehicle id="SN_347" type="SUMO_DEFAULT_TYPE" route="W2E" depart="380"/>
    <vehicle id="EW_348" type="CAV_TYPE" route="W2E" depart="382"/>
    <vehicle id="ES_349" type="SUMO_DEFAULT_TYPE" route="W2E" depart="383"/>
    <vehicle id="SW_350" type="CAV_TYPE" route="W2E" depart="385"/>
    <vehicle id="WN_351" type="CAV_TYPE" route="W2E" depart="389"/>
    <vehicle id="WN_352" type="CAV_TYPE" route="W2E" depart="390"/>
    <vehicle id="WE_353" type="SUMO_DEFAULT_TYPE" route="W2E" depart="391"/>
    <vehicle id="SN_354" type="CAV_TYPE" route="W2E" depart="391"/>
    <vehicle id="WE_355" type="CAV_TYPE" route="W2E" depart="393"/>
    <vehicle id="NS_356" type="CAV_TYPE" route="W2E" depart="393"/>
    <vehicle id="WE_357" type="CAV_TYPE" route="W2E" depart="394"/>
    <vehicle id="SN_358" type="CAV_TYPE" route="W2E" depart="395"/>
    <vehicle id="NS_359" type="CAV_TYPE" route="W2E" depart="396"/>
    <vehicle id="NS_360" type="CAV_TYPE" route="W2E" depart="397"/>
    <vehicle id="NS_361" type="CAV_TYPE" route="W2E" depart="398"/>
    <vehicle id="SN_362" type="CAV_TYPE" route="W2E" depart="400"/>
    <vehicle id="SN_363" type="CAV_TYPE" route="W2E" depart="402"/>
    <vehicle id="WE_364" type="CAV_TYPE" route="W2E" depart="406"/>
    <vehicle id="EW_365" type="CAV_TYPE" route="W2E" depart="406"/>
    <vehicle id="NS_366" type="CAV_TYPE" route="W2E" depart="407"/>
    <vehicle id="SN_367" type="CAV_TYPE" route="W2E" depart="409"/>
    <vehicle id="NS_368" type="CAV_TYPE" route="W2E" depart="412"/>
    <vehicle id="WE_369" type="CAV_TYPE" route="W2E" depart="415"/>
    <vehicle id="EW_370" type="CAV_TYPE" route="W2E" depart="416"/>
    <vehicle id="NS_371" type="SUMO_DEFAULT_TYPE" route="W2E" depart="416"/>
    <vehicle id="WN_372" type="CAV_TYPE" route="W2E" depart="416"/>
    <vehicle id="SW_373" type="CAV_TYPE" route="W2E" depart="417"/>
    <vehicle id="EW_374" type="CAV_TYPE" route="W2E" depart="420"/>
    <vehicle id="NS_375" type="CAV_TYPE" route="W2E" depart="421"/>
    <vehicle id="NE_376" type="CAV_TYPE" route="W2E" depart="424"/>
    <vehicle id="ES_377" type="CAV_TYPE" route="W2E" depart="424"/>
    <vehicle id="EW_378" type="SUMO_DEFAULT_TYPE" route="W2E" depart="425"/>
    <vehicle id="WE_379" type="CAV_TYPE" route="W2E" depart="426"/>
    <vehicle id="SN_380" type="CAV_TYPE" route="W2E" depart="426"/>
    <vehicle id="WE_381" type="CAV_TYPE" route="W2E" depart="427"/>
    <vehicle id="EW_382" type="CAV_TYPE" route="W2E" depart="427"/>
    <vehicle id="WE_383" type="CAV_TYPE" route="W2E" depart="428"/>
    <vehicle id="EW_384" type="SUMO_DEFAULT_TYPE" route="W2E" depart="428"/>
    <vehicle id="NE_385" type="CAV_TYPE" route="W2E" depart="428"/>
    <vehicle id="SW_386" type="CAV_TYPE" route="W2E" depart="429"/>
    <vehicle id="WN_387" type="CAV_TYPE" route="W2E" depart="430"/>
    <vehicle id="WE_388" type="CAV_TYPE" route="W2E" depart="431"/>
    <vehicle id="EW_389" type="SUMO_DEFAULT_TYPE" route="W2E" depart="431"/>
    <vehicle id="WN_390" type="CAV_TYPE" route="W2E" depart="431"/>
    <vehicle id="ES_391" type="CAV_TYPE" route="W2E" depart="431"/>
    <vehicle id="WE_392" type="CAV_TYPE" route="W2E" depart="433"/>
    <vehicle id="NS_393" type="CAV_TYPE" route="W2E" depart="434"/>
    <vehicle id="WN_394" type="CAV_TYPE" route="W2E" depart="434"/>
    <vehicle id="NS_395" type="CAV_TYPE" route="W2E" depart="436"/>
    <vehicle id="NE_396" type="CAV_TYPE" route="W2E" depart="438"/>
    <vehicle id="SW_397" type="CAV_TYPE" route="W2E" depart="439"/>
    <vehicle id="ES_398" type="CAV_TYPE" route="W2E" depart="440"/>
    <vehicle id="EW_399" type="SUMO_DEFAULT_TYPE" route="W2E" depart="443"/>
    <vehicle id="NE_400" type="CAV_TYPE" route="W2E" depart="443"/>
    <vehicle id="NS_401" type="CAV_TYPE" route="W2E" depart="444"/>
    <vehicle id="EW_402" type="CAV_TYPE" route="W2E" depart="447"/>
    <vehicle id="WE_403" type="SUMO_DEFAULT_TYPE" route="W2E" depart="448"/>
    <vehicle id="WE_404" type="CAV_TYPE" route="W2E" depart="449"/>
    <vehicle id="NE_405" type="CAV_TYPE" route="W2E" depart="449"/>
    <vehicle id="ES_406" type="CAV_TYPE" route="W2E" depart="449"/>
    <vehicle id="WN_407" type="CAV_TYPE" route="W2E" depart="451"/>
    <vehicle id="SN_408" type="CAV_TYPE" route="W2E" depart="453"/>
    <vehicle id="ES_409" type="CAV_TYPE" route="W2E" depart="455"/>
    <vehicle id="EW_410" type="CAV_TYPE" route="W2E" depart="458"/>
    <vehicle id="NS_411" type="CAV_TYPE" route="W2E" depart="458"/>
    <vehicle id="WN_412" type="CAV_TYPE" route="W2E" depart="458"/>
    <vehicle id="SW_413" type="CAV_TYPE" route="W2E" depart="458"/>
    <vehicle id="NS_414" type="CAV_TYPE" route="W2E" depart="460"/>
    <vehicle id="WE_415" type="CAV_TYPE" route="W2E" depart="461"/>
    <vehicle id="WE_416" type="CAV_TYPE" route="W2E" depart="462"/>
    <vehicle id="SN_417" type="CAV_TYPE" route="W2E" depart="462"/>
    <vehicle id="EW_418" type="CAV_TYPE" route="W2E" depart="463"/>
    <vehicle id="WE_419" type="CAV_TYPE" route="W2E" depart="466"/>
    <vehicle id="WN_420" type="CAV_TYPE" route="W2E" depart="466"/>
    <vehicle id="SN_421" type="CAV_TYPE" route="W2E" depart="467"/>
    <vehicle id="NS_422" type="CAV_TYPE" route="W2E" depart="468"/>
    <vehicle id="EW_423" type="CAV_TYPE" route="W2E" depart="469"/>
    <vehicle id="SN_424" type="SUMO_DEFAULT_TYPE" route="W2E" depart="469"/>
    <vehicle id="ES_425" type="CAV_TYPE" route="W2E" depart="470"/>