<routes>
        <vType id="SUMO_DEFAULT_TYPE" accel="0.8" decel="4.5" sigma="0" length="5" minGap="2" maxSpeed="70"/>

        <route id="W2E" edges="51o 1i 2o 52i" />
        <route id="E2W" edges="52o 2i 1o 51i" />
        <route id="N2S" edges="54o 4i 3o 53i" />
        <route id="S2N" edges="53o 3i 4o 54i" />

        <route id="W2N" edges="51o 1i 4o 54i" />
        <route id="N2E" edges="54o 4i 2o 52i" />
        <route id="E2S" edges="52o 2i 3o 53i" />
        <route id="S2W" edges="53o 3i 1o 51i" />

        <route id="W2S" edges="51o 1i 3o 53i" />
        <route id="S2E" edges="53o 3i 2o 52i" />
        <route id="E2N" edges="52o 2i 4o 54i" />
        <route id="N2W" edges="54o 4i 1o 51i" />


    <vehicle id="down_0" type="SUMO_DEFAULT_TYPE" route="N2S" depart="1"/>
    <vehicle id="up_1" type="SUMO_DEFAULT_TYPE" route="S2N" depart="1"/>
    <vehicle id="down_2" type="SUMO_DEFAULT_TYPE" route="N2S" depart="2"/>
    <vehicle id="down_3" type="SUMO_DEFAULT_TYPE" route="N2S" depart="3"/>
    <vehicle id="downLT_4" type="SUMO_DEFAULT_TYPE" route="E2S" depart="3" color="1,0,0"/>
    <vehicle id="left_5" type="SUMO_DEFAULT_TYPE" route="E2W" depart="6"/>
    <vehicle id="down_6" type="SUMO_DEFAULT_TYPE" route="N2S" depart="6"/>
    <vehicle id="downLT_7" type="SUMO_DEFAULT_TYPE" route="E2S" depart="9" color="1,0,0"/>
    <vehicle id="down_8" type="SUMO_DEFAULT_TYPE" route="N2S" depart="13"/>
    <vehicle id="right_9" type="SUMO_DEFAULT_TYPE" route="W2E" depart="15"/>
    <vehicle id="leftLT_10" type="SUMO_DEFAULT_TYPE" route="N2E" depart="15" color="1,0,0"/>
    <vehicle id="leftLT_11" type="SUMO_DEFAULT_TYPE" route="N2E" depart="16" color="1,0,0"/>
    <vehicle id="right_12" type="SUMO_DEFAULT_TYPE" route="W2E" depart="19"/>
    <vehicle id="left_13" type="SUMO_DEFAULT_TYPE" route="E2W" depart="22"/>
    <vehicle id="up_14" type="SUMO_DEFAULT_TYPE" route="S2N" depart="23"/>
    <vehicle id="upLT_15" type="SUMO_DEFAULT_TYPE" route="S2W" depart="28" color="1,0,0"/>
    <vehicle id="up_16" type="SUMO_DEFAULT_TYPE" route="S2N" depart="30"/>
    <vehicle id="upLT_17" type="SUMO_DEFAULT_TYPE" route="S2W" depart="31" color="1,0,0"/>
    <vehicle id="leftLT_18" type="SUMO_DEFAULT_TYPE" route="N2E" depart="32" color="1,0,0"/>
    <vehicle id="up_19" type="SUMO_DEFAULT_TYPE" route="S2N" depart="34"/>
    <vehicle id="right_20" type="SUMO_DEFAULT_TYPE" route="W2E" depart="37"/>
    <vehicle id="up_21" type="SUMO_DEFAULT_TYPE" route="S2N" depart="41"/>
    <vehicle id="upLT_22" type="SUMO_DEFAULT_TYPE" route="S2W" depart="43" color="1,0,0"/>
    <vehicle id="left_23" type="SUMO_DEFAULT_TYPE" route="E2W" depart="46"/>
    <vehicle id="rightLT_24" type="SUMO_DEFAULT_TYPE" route="W2N" depart="51" color="1,0,0"/>
    <vehicle id="downLT_25" type="SUMO_DEFAULT_TYPE" route="E2S" depart="51" color="1,0,0"/>
    <vehicle id="downLT_26" type="SUMO_DEFAULT_TYPE" route="E2S" depart="53" color="1,0,0"/>
    <vehicle id="right_27" type="SUMO_DEFAULT_TYPE" route="W2E" depart="55"/>
    <vehicle id="down_28" type="SUMO_DEFAULT_TYPE" route="N2S" depart="55"/>
    <vehicle id="up_29" type="SUMO_DEFAULT_TYPE" route="S2N" depart="56"/>
    <vehicle id="right_30" type="SUMO_DEFAULT_TYPE" route="W2E" depart="57"/>
    <vehicle id="left_31" type="SUMO_DEFAULT_TYPE" route="E2W" depart="67"/>
    <vehicle id="up_32" type="SUMO_DEFAULT_TYPE" route="S2N" depart="67"/>
    <vehicle id="rightLT_33" type="SUMO_DEFAULT_TYPE" route="W2N" depart="71" color="1,0,0"/>
    <vehicle id="rightLT_34" type="SUMO_DEFAULT_TYPE" route="W2N" depart="74" color="1,0,0"/>
    <vehicle id="right_35" type="SUMO_DEFAULT_TYPE" route="W2E" depart="75"/>
    <vehicle id="up_36" type="SUMO_DEFAULT_TYPE" route="S2N" depart="76"/>
    <vehicle id="right_37" type="SUMO_DEFAULT_TYPE" route="W2E" depart="85"/>
    <vehicle id="up_38" type="SUMO_DEFAULT_TYPE" route="S2N" depart="88"/>
    <vehicle id="up_39" type="SUMO_DEFAULT_TYPE" route="S2N" depart="89"/>
    <vehicle id="down_40" type="SUMO_DEFAULT_TYPE" route="N2S" depart="91"/>
    <vehicle id="left_41" type="SUMO_DEFAULT_TYPE" route="E2W" depart="92"/>
    <vehicle id="upLT_42" type="SUMO_DEFAULT_TYPE" route="S2W" depart="100" color="1,0,0"/>
    <vehicle id="right_43" type="SUMO_DEFAULT_TYPE" route="W2E" depart="103"/>
    <vehicle id="up_44" type="SUMO_DEFAULT_TYPE" route="S2N" depart="105"/>
    <vehicle id="right_45" type="SUMO_DEFAULT_TYPE" route="W2E" depart="106"/>
    <vehicle id="downLT_46" type="SUMO_DEFAULT_TYPE" route="E2S" depart="107" color="1,0,0"/>
    <vehicle id="up_47" type="SUMO_DEFAULT_TYPE" route="S2N" depart="109"/>
    <vehicle id="down_48" type="SUMO_DEFAULT_TYPE" route="N2S" depart="110"/>
    <vehicle id="down_49" type="SUMO_DEFAULT_TYPE" route="N2S" depart="111"/>
    <vehicle id="right_50" type="SUMO_DEFAULT_TYPE" route="W2E" depart="115"/>
    <vehicle id="down_51" type="SUMO_DEFAULT_TYPE" route="N2S" depart="115"/>
    <vehicle id="left_52" type="SUMO_DEFAULT_TYPE" route="E2W" depart="117"/>
    <vehicle id="rightLT_53" type="SUMO_DEFAULT_TYPE" route="W2N" depart="117" color="1,0,0"/>
    <vehicle id="up_54" type="SUMO_DEFAULT_TYPE" route="S2N" depart="119"/>
    <vehicle id="up_55" type="SUMO_DEFAULT_TYPE" route="S2N" depart="120"/>
    <vehicle id="down_56" type="SUMO_DEFAULT_TYPE" route="N2S" depart="121"/>
    <vehicle id="right_57" type="SUMO_DEFAULT_TYPE" route="W2E" depart="123"/>
    <vehicle id="right_58" type="SUMO_DEFAULT_TYPE" route="W2E" depart="130"/>
    <vehicle id="up_59" type="SUMO_DEFAULT_TYPE" route="S2N" depart="130"/>
    <vehicle id="downLT_60" type="SUMO_DEFAULT_TYPE" route="E2S" depart="130" color="1,0,0"/>
    <vehicle id="up_61" type="SUMO_DEFAULT_TYPE" route="S2N" depart="132"/>
    <vehicle id="downLT_62" type="SUMO_DEFAULT_TYPE" route="E2S" depart="135" color="1,0,0"/>
    <vehicle id="right_63" type="SUMO_DEFAULT_TYPE" route="W2E" depart="139"/>
    <vehicle id="left_64" type="SUMO_DEFAULT_TYPE" route="E2W" depart="140"/>
    <vehicle id="rightLT_65" type="SUMO_DEFAULT_TYPE" route="W2N" depart="143" color="1,0,0"/>
    <vehicle id="up_66" type="SUMO_DEFAULT_TYPE" route="S2N" depart="144"/>
    <vehicle id="right_67" type="SUMO_DEFAULT_TYPE" route="W2E" depart="145"/>
    <vehicle id="right_68" type="SUMO_DEFAULT_TYPE" route="W2E" depart="148"/>
    <vehicle id="right_69" type="SUMO_DEFAULT_TYPE" route="W2E" depart="152"/>
    <vehicle id="left_70" type="SUMO_DEFAULT_TYPE" route="E2W" depart="158"/>
    <vehicle id="leftLT_71" type="SUMO_DEFAULT_TYPE" route="N2E" depart="158" color="1,0,0"/>
    <vehicle id="down_72" type="SUMO_DEFAULT_TYPE" route="N2S" depart="159"/>
    <vehicle id="right_73" type="SUMO_DEFAULT_TYPE" route="W2E" depart="160"/>
    <vehicle id="downLT_74" type="SUMO_DEFAULT_TYPE" route="E2S" depart="162" color="1,0,0"/>
    <vehicle id="left_75" type="SUMO_DEFAULT_TYPE" route="E2W" depart="163"/>
    <vehicle id="down_76" type="SUMO_DEFAULT_TYPE" route="N2S" depart="165"/>
    <vehicle id="right_77" type="SUMO_DEFAULT_TYPE" route="W2E" depart="166"/>
    <vehicle id="left_78" type="SUMO_DEFAULT_TYPE" route="E2W" depart="167"/>
    <vehicle id="up_79" type="SUMO_DEFAULT_TYPE" route="S2N" depart="167"/>
    <vehicle id="up_80" type="SUMO_DEFAULT_TYPE" route="S2N" depart="169"/>
    <vehicle id="upLT_81" type="SUMO_DEFAULT_TYPE" route="S2W" depart="170" color="1,0,0"/>
    <vehicle id="up_82" type="SUMO_DEFAULT_TYPE" route="S2N" depart="171"/>
    <vehicle id="upLT_83" type="SUMO_DEFAULT_TYPE" route="S2W" depart="172" color="1,0,0"/>
    <vehicle id="rightLT_84" type="SUMO_DEFAULT_TYPE" route="W2N" depart="173" color="1,0,0"/>
    <vehicle id="downLT_85" type="SUMO_DEFAULT_TYPE" route="E2S" depart="173" color="1,0,0"/>
    <vehicle id="left_86" type="SUMO_DEFAULT_TYPE" route="E2W" depart="176"/>
    <vehicle id="left_87" type="SUMO_DEFAULT_TYPE" route="E2W" depart="179"/>
    <vehicle id="left_88" type="SUMO_DEFAULT_TYPE" route="E2W" depart="181"/>
    <vehicle id="left_89" type="SUMO_DEFAULT_TYPE" route="E2W" depart="182"/>
    <vehicle id="downLT_90" type="SUMO_DEFAULT_TYPE" route="E2S" depart="182" color="1,0,0"/>
    <vehicle id="left_91" type="SUMO_DEFAULT_TYPE" route="E2W" depart="183"/>
    <vehicle id="down_92" type="SUMO_DEFAULT_TYPE" route="N2S" depart="183"/>
    <vehicle id="up_93" type="SUMO_DEFAULT_TYPE" route="S2N" depart="186"/>
    <vehicle id="down_94" type="SUMO_DEFAULT_TYPE" route="N2S" depart="188"/>
    <vehicle id="up_95" type="SUMO_DEFAULT_TYPE" route="S2N" depart="188"/>
    <vehicle id="down_96" type="SUMO_DEFAULT_TYPE" route="N2S" depart="189"/>
    <vehicle id="left_97" type="SUMO_DEFAULT_TYPE" route="E2W" depart="193"/>
    <vehicle id="down_98" type="SUMO_DEFAULT_TYPE" route="N2S" depart="193"/>
    <vehicle id="downLT_99" type="SUMO_DEFAULT_TYPE" route="E2S" depart="193" color="1,0,0"/>
    <vehicle id="down_100" type="SUMO_DEFAULT_TYPE" route="N2S" depart="194"/>
    <vehicle id="upLT_101" type="SUMO_DEFAULT_TYPE" route="S2W" depart="197" color="1,0,0"/>
    <vehicle id="up_102" type="SUMO_DEFAULT_TYPE" route="S2N" depart="200"/>
    <vehicle id="down_103" type="SUMO_DEFAULT_TYPE" route="N2S" depart="201"/>
    <vehicle id="right_104" type="SUMO_DEFAULT_TYPE" route="W2E" depart="202"/>
    <vehicle id="down_105" type="SUMO_DEFAULT_TYPE" route="N2S" depart="203"/>
    <vehicle id="up_106" type="SUMO_DEFAULT_TYPE" route="S2N" depart="203"/>
    <vehicle id="left_107" type="SUMO_DEFAULT_TYPE" route="E2W" depart="204"/>
    <vehicle id="down_108" type="SUMO_DEFAULT_TYPE" route="N2S" depart="204"/>
    <vehicle id="up_109" type="SUMO_DEFAULT_TYPE" route="S2N" depart="206"/>
    <vehicle id="right_110" type="SUMO_DEFAULT_TYPE" route="W2E" depart="208"/>
    <vehicle id="down_111" type="SUMO_DEFAULT_TYPE" route="N2S" depart="215"/>
    <vehicle id="down_112" type="SUMO_DEFAULT_TYPE" route="N2S" depart="216"/>
    <vehicle id="left_113" type="SUMO_DEFAULT_TYPE" route="E2W" depart="221"/>
    <vehicle id="up_114" type="SUMO_DEFAULT_TYPE" route="S2N" depart="221"/>
    <vehicle id="right_115" type="SUMO_DEFAULT_TYPE" route="W2E" depart="222"/>
    <vehicle id="left_116" type="SUMO_DEFAULT_TYPE" route="E2W" depart="222"/>
    <vehicle id="down_117" type="SUMO_DEFAULT_TYPE" route="N2S" depart="225"/>
    <vehicle id="downLT_118" type="SUMO_DEFAULT_TYPE" route="E2S" depart="227" color="1,0,0"/>
    <vehicle id="left_119" type="SUMO_DEFAULT_TYPE" route="E2W" depart="228"/>
    <vehicle id="right_120" type="SUMO_DEFAULT_TYPE" route="W2E" depart="231"/>
    <vehicle id="right_121" type="SUMO_DEFAULT_TYPE" route="W2E" depart="232"/>
    <vehicle id="down_122" type="SUMO_DEFAULT_TYPE" route="N2S" depart="233"/>
    <vehicle id="rightLT_123" type="SUMO_DEFAULT_TYPE" route="W2N" depart="233" color="1,0,0"/>
    <vehicle id="left_124" type="SUMO_DEFAULT_TYPE" route="E2W" depart="237"/>
    <vehicle id="down_125" type="SUMO_DEFAULT_TYPE" route="N2S" depart="240"/>
    <vehicle id="left_126" type="SUMO_DEFAULT_TYPE" route="E2W" depart="242"/>
    <vehicle id="down_127" type="SUMO_DEFAULT_TYPE" route="N2S" depart="243"/>
    <vehicle id="left_128" type="SUMO_DEFAULT_TYPE" route="E2W" depart="246"/>
    <vehicle id="rightLT_129" type="SUMO_DEFAULT_TYPE" route="W2N" depart="248" color="1,0,0"/>
    <vehicle id="down_130" type="SUMO_DEFAULT_TYPE" route="N2S" depart="254"/>
    <vehicle id="right_131" type="SUMO_DEFAULT_TYPE" route="W2E" depart="255"/>
    <vehicle id="up_132" type="SUMO_DEFAULT_TYPE" route="S2N" depart="255"/>
    <vehicle id="upLT_133" type="SUMO_DEFAULT_TYPE" route="S2W" depart="255" color="1,0,0"/>
    <vehicle id="left_134" type="SUMO_DEFAULT_TYPE" route="E2W" depart="256"/>
    <vehicle id="up_135" type="SUMO_DEFAULT_TYPE" route="S2N" depart="257"/>
    <vehicle id="left_136" type="SUMO_DEFAULT_TYPE" route="E2W" depart="258"/>
    <vehicle id="rightLT_137" type="SUMO_DEFAULT_TYPE" route="W2N" depart="258" color="1,0,0"/>
    <vehicle id="down_138" type="SUMO_DEFAULT_TYPE" route="N2S" depart="260"/>
    <vehicle id="downLT_139" type="SUMO_DEFAULT_TYPE" route="E2S" depart="263" color="1,0,0"/>
    <vehicle id="right_140" type="SUMO_DEFAULT_TYPE" route="W2E" depart="267"/>
    <vehicle id="up_141" type="SUMO_DEFAULT_TYPE" route="S2N" depart="271"/>
    <vehicle id="up_142" type="SUMO_DEFAULT_TYPE" route="S2N" depart="272"/>
    <vehicle id="left_143" type="SUMO_DEFAULT_TYPE" route="E2W" depart="273"/>
    <vehicle id="up_144" type="SUMO_DEFAULT_TYPE" route="S2N" depart="274"/>
    <vehicle id="left_145" type="SUMO_DEFAULT_TYPE" route="E2W" depart="275"/>
    <vehicle id="right_146" type="SUMO_DEFAULT_TYPE" route="W2E" depart="279"/>
    <vehicle id="down_147" type="SUMO_DEFAULT_TYPE" route="N2S" depart="281"/>
    <vehicle id="left_148" type="SUMO_DEFAULT_TYPE" route="E2W" depart="283"/>
    <vehicle id="leftLT_149" type="SUMO_DEFAULT_TYPE" route="N2E" depart="283" color="1,0,0"/>
    <vehicle id="left_150" type="SUMO_DEFAULT_TYPE" route="E2W" depart="284"/>
    <vehicle id="right_151" type="SUMO_DEFAULT_TYPE" route="W2E" depart="285"/>
    <vehicle id="up_152" type="SUMO_DEFAULT_TYPE" route="S2N" depart="285"/>
    <vehicle id="rightLT_153" type="SUMO_DEFAULT_TYPE" route="W2N" depart="285" color="1,0,0"/>
    <vehicle id="right_154" type="SUMO_DEFAULT_TYPE" route="W2E" depart="287"/>
    <vehicle id="upLT_155" type="SUMO_DEFAULT_TYPE" route="S2W" depart="289" color="1,0,0"/>
    <vehicle id="down_156" type="SUMO_DEFAULT_TYPE" route="N2S" depart="290"/>
    <vehicle id="down_157" type="SUMO_DEFAULT_TYPE" route="N2S" depart="294"/>
    <vehicle id="downLT_158" type="SUMO_DEFAULT_TYPE" route="E2S" depart="296" color="1,0,0"/>
    <vehicle id="right_159" type="SUMO_DEFAULT_TYPE" route="W2E" depart="297"/>
    <vehicle id="upLT_160" type="SUMO_DEFAULT_TYPE" route="S2W" depart="298" color="1,0,0"/>
    <vehicle id="left_161" type="SUMO_DEFAULT_TYPE" route="E2W" depart="300"/>
    <vehicle id="down_162" type="SUMO_DEFAULT_TYPE" route="N2S" depart="300"/>
    <vehicle id="right_163" type="SUMO_DEFAULT_TYPE" route="W2E" depart="303"/>
    <vehicle id="right_164" type="SUMO_DEFAULT_TYPE" route="W2E" depart="305"/>
    <vehicle id="up_165" type="SUMO_DEFAULT_TYPE" route="S2N" depart="305"/>
    <vehicle id="right_166" type="SUMO_DEFAULT_TYPE" route="W2E" depart="311"/>
    <vehicle id="right_167" type="SUMO_DEFAULT_TYPE" route="W2E" depart="313"/>
    <vehicle id="leftLT_168" type="SUMO_DEFAULT_TYPE" route="N2E" depart="313" color="1,0,0"/>
    <vehicle id="upLT_169" type="SUMO_DEFAULT_TYPE" route="S2W" depart="318" color="1,0,0"/>
    <vehicle id="left_170" type="SUMO_DEFAULT_TYPE" route="E2W" depart="320"/>
    <vehicle id="up_171" type="SUMO_DEFAULT_TYPE" route="S2N" depart="321"/>
    <vehicle id="right_172" type="SUMO_DEFAULT_TYPE" route="W2E" depart="322"/>
    <vehicle id="left_173" type="SUMO_DEFAULT_TYPE" route="E2W" depart="325"/>
    <vehicle id="down_174" type="SUMO_DEFAULT_TYPE" route="N2S" depart="326"/>
    <vehicle id="left_175" type="SUMO_DEFAULT_TYPE" route="E2W" depart="328"/>
    <vehicle id="right_176" type="SUMO_DEFAULT_TYPE" route="W2E" depart="330"/>
    <vehicle id="up_177" type="SUMO_DEFAULT_TYPE" route="S2N" depart="330"/>
    <vehicle id="upLT_178" type="SUMO_DEFAULT_TYPE" route="S2W" depart="332" color="1,0,0"/>
    <vehicle id="right_179" type="SUMO_DEFAULT_TYPE" route="W2E" depart="334"/>
    <vehicle id="left_180" type="SUMO_DEFAULT_TYPE" route="E2W" depart="336"/>
    <vehicle id="up_181" type="SUMO_DEFAULT_TYPE" route="S2N" depart="340"/>
    <vehicle id="leftLT_182" type="SUMO_DEFAULT_TYPE" route="N2E" depart="342" color="1,0,0"/>
    <vehicle id="down_183" type="SUMO_DEFAULT_TYPE" route="N2S" depart="343"/>
    <vehicle id="left_184" type="SUMO_DEFAULT_TYPE" route="E2W" depart="347"/>
    <vehicle id="left_185" type="SUMO_DEFAULT_TYPE" route="E2W" depart="352"/>
    <vehicle id="downLT_186" type="SUMO_DEFAULT_TYPE" route="E2S" depart="353" color="1,0,0"/>
    <vehicle id="left_187" type="SUMO_DEFAULT_TYPE" route="E2W" depart="355"/>
    <vehicle id="rightLT_188" type="SUMO_DEFAULT_TYPE" route="W2N" depart="356" color="1,0,0"/>
    <vehicle id="up_189" type="SUMO_DEFAULT_TYPE" route="S2N" depart="361"/>
    <vehicle id="up_190" type="SUMO_DEFAULT_TYPE" route="S2N" depart="366"/>
    <vehicle id="down_191" type="SUMO_DEFAULT_TYPE" route="N2S" depart="367"/>
    <vehicle id="right_192" type="SUMO_DEFAULT_TYPE" route="W2E" depart="368"/>
    <vehicle id="left_193" type="SUMO_DEFAULT_TYPE" route="E2W" depart="368"/>
    <vehicle id="down_194" type="SUMO_DEFAULT_TYPE" route="N2S" depart="368"/>
    <vehicle id="left_195" type="SUMO_DEFAULT_TYPE" route="E2W" depart="370"/>
    <vehicle id="right_196" type="SUMO_DEFAULT_TYPE" route="W2E" depart="374"/>
    <vehicle id="upLT_197" type="SUMO_DEFAULT_TYPE" route="S2W" depart="374" color="1,0,0"/>
    <vehicle id="left_198" type="SUMO_DEFAULT_TYPE" route="E2W" depart="376"/>
    <vehicle id="up_199" type="SUMO_DEFAULT_TYPE" route="S2N" depart="376"/>
    <vehicle id="rightLT_200" type="SUMO_DEFAULT_TYPE" route="W2N" depart="377" color="1,0,0"/>
    <vehicle id="upLT_201" type="SUMO_DEFAULT_TYPE" route="S2W" depart="377" color="1,0,0"/>
    <vehicle id="down_202" type="SUMO_DEFAULT_TYPE" route="N2S" depart="378"/>
    <vehicle id="up_203" type="SUMO_DEFAULT_TYPE" route="S2N" depart="379"/>
    <vehicle id="downLT_204" type="SUMO_DEFAULT_TYPE" route="E2S" depart="379" color="1,0,0"/>
    <vehicle id="up_205" type="SUMO_DEFAULT_TYPE" route="S2N" depart="387"/>
    <vehicle id="upLT_206" type="SUMO_DEFAULT_TYPE" route="S2W" depart="389" color="1,0,0"/>
    <vehicle id="left_207" type="SUMO_DEFAULT_TYPE" route="E2W" depart="390"/>
    <vehicle id="up_208" type="SUMO_DEFAULT_TYPE" route="S2N" depart="390"/>
    <vehicle id="right_209" type="SUMO_DEFAULT_TYPE" route="W2E" depart="394"/>
    <vehicle id="down_210" type="SUMO_DEFAULT_TYPE" route="N2S" depart="394"/>
    <vehicle id="left_211" type="SUMO_DEFAULT_TYPE" route="E2W" depart="400"/>
    <vehicle id="right_212" type="SUMO_DEFAULT_TYPE" route="W2E" depart="401"/>
    <vehicle id="leftLT_213" type="SUMO_DEFAULT_TYPE" route="N2E" depart="401" color="1,0,0"/>
    <vehicle id="rightLT_214" type="SUMO_DEFAULT_TYPE" route="W2N" depart="403" color="1,0,0"/>
    <vehicle id="left_215" type="SUMO_DEFAULT_TYPE" route="E2W" depart="409"/>
    <vehicle id="up_216" type="SUMO_DEFAULT_TYPE" route="S2N" depart="410"/>
    <vehicle id="right_217" type="SUMO_DEFAULT_TYPE" route="W2E" depart="411"/>
    <vehicle id="down_218" type="SUMO_DEFAULT_TYPE" route="N2S" depart="412"/>
    <vehicle id="rightLT_219" type="SUMO_DEFAULT_TYPE" route="W2N" depart="413" color="1,0,0"/>
    <vehicle id="left_220" type="SUMO_DEFAULT_TYPE" route="E2W" depart="414"/>
    <vehicle id="down_221" type="SUMO_DEFAULT_TYPE" route="N2S" depart="416"/>
    <vehicle id="left_222" type="SUMO_DEFAULT_TYPE" route="E2W" depart="417"/>
    <vehicle id="down_223" type="SUMO_DEFAULT_TYPE" route="N2S" depart="417"/>
    <vehicle id="right_224" type="SUMO_DEFAULT_TYPE" route="W2E" depart="418"/>
    <vehicle id="left_225" type="SUMO_DEFAULT_TYPE" route="E2W" depart="419"/>
    <vehicle id="down_226" type="SUMO_DEFAULT_TYPE" route="N2S" depart="419"/>
    <vehicle id="up_227" type="SUMO_DEFAULT_TYPE" route="S2N" depart="419"/>
    <vehicle id="left_228" type="SUMO_DEFAULT_TYPE" route="E2W" depart="420"/>
    <vehicle id="upLT_229" type="SUMO_DEFAULT_TYPE" route="S2W" depart="422" color="1,0,0"/>
    <vehicle id="down_230" type="SUMO_DEFAULT_TYPE" route="N2S" depart="423"/>
    <vehicle id="upLT_231" type="SUMO_DEFAULT_TYPE" route="S2W" depart="425" color="1,0,0"/>
    <vehicle id="left_232" type="SUMO_DEFAULT_TYPE" route="E2W" depart="426"/>
    <vehicle id="left_233" type="SUMO_DEFAULT_TYPE" route="E2W" depart="428"/>
    <vehicle id="downLT_234" type="SUMO_DEFAULT_TYPE" route="E2S" depart="429" color="1,0,0"/>
    <vehicle id="left_235" type="SUMO_DEFAULT_TYPE" route="E2W" depart="430"/>
    <vehicle id="up_236" type="SUMO_DEFAULT_TYPE" route="S2N" depart="430"/>
    <vehicle id="right_237" type="SUMO_DEFAULT_TYPE" route="W2E" depart="431"/>
    <vehicle id="up_238" type="SUMO_DEFAULT_TYPE" route="S2N" depart="433"/>
    <vehicle id="upLT_239" type="SUMO_DEFAULT_TYPE" route="S2W" depart="436" color="1,0,0"/>
    <vehicle id="up_240" type="SUMO_DEFAULT_TYPE" route="S2N" depart="437"/>
    <vehicle id="right_241" type="SUMO_DEFAULT_TYPE" route="W2E" depart="443"/>
    <vehicle id="upLT_242" type="SUMO_DEFAULT_TYPE" route="S2W" depart="443" color="1,0,0"/>
    <vehicle id="right_243" type="SUMO_DEFAULT_TYPE" route="W2E" depart="451"/>
    <vehicle id="left_244" type="SUMO_DEFAULT_TYPE" route="E2W" depart="456"/>
    <vehicle id="upLT_245" type="SUMO_DEFAULT_TYPE" route="S2W" depart="456" color="1,0,0"/>
    <vehicle id="rightLT_246" type="SUMO_DEFAULT_TYPE" route="W2N" depart="459" color="1,0,0"/>
    <vehicle id="upLT_247" type="SUMO_DEFAULT_TYPE" route="S2W" depart="460" color="1,0,0"/>
    <vehicle id="left_248" type="SUMO_DEFAULT_TYPE" route="E2W" depart="466"/>
    <vehicle id="right_249" type="SUMO_DEFAULT_TYPE" route="W2E" depart="470"/>
    <vehicle id="down_250" type="SUMO_DEFAULT_TYPE" route="N2S" depart="471"/>
    <vehicle id="right_251" type="SUMO_DEFAULT_TYPE" route="W2E" depart="472"/>
    <vehicle id="up_252" type="SUMO_DEFAULT_TYPE" route="S2N" depart="472"/>
    <vehicle id="down_253" type="SUMO_DEFAULT_TYPE" route="N2S" depart="476"/>
    <vehicle id="up_254" type="SUMO_DEFAULT_TYPE" route="S2N" depart="477"/>
    <vehicle id="rightLT_255" type="SUMO_DEFAULT_TYPE" route="W2N" depart="478" color="1,0,0"/>
    <vehicle id="right_256" type="SUMO_DEFAULT_TYPE" route="W2E" depart="479"/>
    <vehicle id="down_257" type="SUMO_DEFAULT_TYPE" route="N2S" depart="481"/>
    <vehicle id="up_258" type="SUMO_DEFAULT_TYPE" route="S2N" depart="484"/>
    <vehicle id="leftLT_259" type="SUMO_DEFAULT_TYPE" route="N2E" depart="484" color="1,0,0"/>
    <vehicle id="right_260" type="SUMO_DEFAULT_TYPE" route="W2E" depart="490"/>
    <vehicle id="up_261" type="SUMO_DEFAULT_TYPE" route="S2N" depart="493"/>
    <vehicle id="leftLT_262" type="SUMO_DEFAULT_TYPE" route="N2E" depart="493" color="1,0,0"/>
    <vehicle id="right_263" type="SUMO_DEFAULT_TYPE" route="W2E" depart="498"/>
    <vehicle id="up_264" type="SUMO_DEFAULT_TYPE" route="S2N" depart="499"/>
    <vehicle id="down_265" type="SUMO_DEFAULT_TYPE" route="N2S" depart="500"/>
    <vehicle id="up_266" type="SUMO_DEFAULT_TYPE" route="S2N" depart="501"/>
    <vehicle id="left_267" type="SUMO_DEFAULT_TYPE" route="E2W" depart="504"/>
    <vehicle id="right_268" type="SUMO_DEFAULT_TYPE" route="W2E" depart="505"/>
    <vehicle id="left_269" type="SUMO_DEFAULT_TYPE" route="E2W" depart="507"/>
    <vehicle id="right_270" type="SUMO_DEFAULT_TYPE" route="W2E" depart="509"/>
    <vehicle id="left_271" type="SUMO_DEFAULT_TYPE" route="E2W" depart="509"/>
    <vehicle id="left_272" type="SUMO_DEFAULT_TYPE" route="E2W" depart="511"/>
    <vehicle id="up_273" type="SUMO_DEFAULT_TYPE" route="S2N" depart="515"/>
    <vehicle id="left_274" type="SUMO_DEFAULT_TYPE" route="E2W" depart="516"/>
    <vehicle id="right_275" type="SUMO_DEFAULT_TYPE" route="W2E" depart="517"/>
    <vehicle id="down_276" type="SUMO_DEFAULT_TYPE" route="N2S" depart="517"/>
    <vehicle id="up_277" type="SUMO_DEFAULT_TYPE" route="S2N" depart="523"/>
    <vehicle id="right_278" type="SUMO_DEFAULT_TYPE" route="W2E" depart="525"/>
    <vehicle id="left_279" type="SUMO_DEFAULT_TYPE" route="E2W" depart="527"/>
    <vehicle id="down_280" type="SUMO_DEFAULT_TYPE" route="N2S" depart="531"/>
    <vehicle id="right_281" type="SUMO_DEFAULT_TYPE" route="W2E" depart="533"/>
    <vehicle id="left_282" type="SUMO_DEFAULT_TYPE" route="E2W" depart="534"/>
    <vehicle id="left_283" type="SUMO_DEFAULT_TYPE" route="E2W" depart="541"/>
    <vehicle id="up_284" type="SUMO_DEFAULT_TYPE" route="S2N" depart="541"/>
    <vehicle id="left_285" type="SUMO_DEFAULT_TYPE" route="E2W" depart="543"/>
    <vehicle id="down_286" type="SUMO_DEFAULT_TYPE" route="N2S" depart="543"/>
    <vehicle id="left_287" type="SUMO_DEFAULT_TYPE" route="E2W" depart="544"/>
    <vehicle id="down_288" type="SUMO_DEFAULT_TYPE" route="N2S" depart="548"/>
    <vehicle id="right_289" type="SUMO_DEFAULT_TYPE" route="W2E" depart="556"/>
    <vehicle id="left_290" type="SUMO_DEFAULT_TYPE" route="E2W" depart="561"/>
    <vehicle id="right_291" type="SUMO_DEFAULT_TYPE" route="W2E" depart="562"/>
    <vehicle id="up_292" type="SUMO_DEFAULT_TYPE" route="S2N" depart="566"/>
    <vehicle id="down_293" type="SUMO_DEFAULT_TYPE" route="N2S" depart="568"/>
    <vehicle id="rightLT_294" type="SUMO_DEFAULT_TYPE" route="W2N" depart="569" color="1,0,0"/>
    <vehicle id="left_295" type="SUMO_DEFAULT_TYPE" route="E2W" depart="572"/>
    <vehicle id="left_296" type="SUMO_DEFAULT_TYPE" route="E2W" depart="573"/>
    <vehicle id="left_297" type="SUMO_DEFAULT_TYPE" route="E2W" depart="576"/>
    <vehicle id="up_298" type="SUMO_DEFAULT_TYPE" route="S2N" depart="576"/>
    <vehicle id="right_299" type="SUMO_DEFAULT_TYPE" route="W2E" depart="578"/>
    <vehicle id="down_300" type="SUMO_DEFAULT_TYPE" route="N2S" depart="578"/>
    <vehicle id="up_301" type="SUMO_DEFAULT_TYPE" route="S2N" depart="580"/>
    <vehicle id="downLT_302" type="SUMO_DEFAULT_TYPE" route="E2S" depart="580" color="1,0,0"/>
    <vehicle id="right_303" type="SUMO_DEFAULT_TYPE" route="W2E" depart="582"/>
    <vehicle id="right_304" type="SUMO_DEFAULT_TYPE" route="W2E" depart="583"/>
    <vehicle id="right_305" type="SUMO_DEFAULT_TYPE" route="W2E" depart="588"/>
    <vehicle id="upLT_306" type="SUMO_DEFAULT_TYPE" route="S2W" depart="588" color="1,0,0"/>
    <vehicle id="up_307" type="SUMO_DEFAULT_TYPE" route="S2N" depart="589"/>
    <vehicle id="left_308" type="SUMO_DEFAULT_TYPE" route="E2W" depart="590"/>
    <vehicle id="left_309" type="SUMO_DEFAULT_TYPE" route="E2W" depart="592"/>
    <vehicle id="rightLT_310" type="SUMO_DEFAULT_TYPE" route="W2N" depart="594" color="1,0,0"/>
    <vehicle id="down_311" type="SUMO_DEFAULT_TYPE" route="N2S" depart="595"/>
    <vehicle id="down_312" type="SUMO_DEFAULT_TYPE" route="N2S" depart="597"/>
    <vehicle id="up_313" type="SUMO_DEFAULT_TYPE" route="S2N" depart="597"/>
    <vehicle id="right_314" type="SUMO_DEFAULT_TYPE" route="W2E" depart="599"/>
    <vehicle id="rightLT_315" type="SUMO_DEFAULT_TYPE" route="W2N" depart="599" color="1,0,0"/>
    <vehicle id="down_316" type="SUMO_DEFAULT_TYPE" route="N2S" depart="600"/>
    <vehicle id="up_317" type="SUMO_DEFAULT_TYPE" route="S2N" depart="600"/>
    <vehicle id="right_318" type="SUMO_DEFAULT_TYPE" route="W2E" depart="603"/>
    <vehicle id="down_319" type="SUMO_DEFAULT_TYPE" route="N2S" depart="603"/>
    <vehicle id="rightLT_320" type="SUMO_DEFAULT_TYPE" route="W2N" depart="603" color="1,0,0"/>
    <vehicle id="left_321" type="SUMO_DEFAULT_TYPE" route="E2W" depart="604"/>
    <vehicle id="left_322" type="SUMO_DEFAULT_TYPE" route="E2W" depart="606"/>
    <vehicle id="left_323" type="SUMO_DEFAULT_TYPE" route="E2W" depart="607"/>
    <vehicle id="down_324" type="SUMO_DEFAULT_TYPE" route="N2S" depart="607"/>
    <vehicle id="downLT_325" type="SUMO_DEFAULT_TYPE" route="E2S" depart="607" color="1,0,0"/>
    <vehicle id="right_326" type="SUMO_DEFAULT_TYPE" route="W2E" depart="609"/>
    <vehicle id="down_327" type="SUMO_DEFAULT_TYPE" route="N2S" depart="611"/>
    <vehicle id="rightLT_328" type="SUMO_DEFAULT_TYPE" route="W2N" depart="611" color="1,0,0"/>
    <vehicle id="leftLT_329" type="SUMO_DEFAULT_TYPE" route="N2E" depart="612" color="1,0,0"/>
    <vehicle id="left_330" type="SUMO_DEFAULT_TYPE" route="E2W" depart="613"/>
    <vehicle id="left_331" type="SUMO_DEFAULT_TYPE" route="E2W" depart="618"/>
    <vehicle id="down_332" type="SUMO_DEFAULT_TYPE" route="N2S" depart="618"/>
    <vehicle id="upLT_333" type="SUMO_DEFAULT_TYPE" route="S2W" depart="618" color="1,0,0"/>
    <vehicle id="up_334" type="SUMO_DEFAULT_TYPE" route="S2N" depart="619"/>
    <vehicle id="rightLT_335" type="SUMO_DEFAULT_TYPE" route="W2N" depart="621" color="1,0,0"/>
    <vehicle id="downLT_336" type="SUMO_DEFAULT_TYPE" route="E2S" depart="621" color="1,0,0"/>
    <vehicle id="right_337" type="SUMO_DEFAULT_TYPE" route="W2E" depart="627"/>
    <vehicle id="up_338" type="SUMO_DEFAULT_TYPE" route="S2N" depart="627"/>
    <vehicle id="right_339" type="SUMO_DEFAULT_TYPE" route="W2E" depart="633"/>
    <vehicle id="left_340" type="SUMO_DEFAULT_TYPE" route="E2W" depart="634"/>
    <vehicle id="right_341" type="SUMO_DEFAULT_TYPE" route="W2E" depart="637"/>
    <vehicle id="up_342" type="SUMO_DEFAULT_TYPE" route="S2N" depart="638"/>
    <vehicle id="upLT_343" type="SUMO_DEFAULT_TYPE" route="S2W" depart="639" color="1,0,0"/>
    <vehicle id="up_344" type="SUMO_DEFAULT_TYPE" route="S2N" depart="643"/>
    <vehicle id="left_345" type="SUMO_DEFAULT_TYPE" route="E2W" depart="648"/>
    <vehicle id="down_346" type="SUMO_DEFAULT_TYPE" route="N2S" depart="649"/>
    <vehicle id="right_347" type="SUMO_DEFAULT_TYPE" route="W2E" depart="650"/>
    <vehicle id="left_348" type="SUMO_DEFAULT_TYPE" route="E2W" depart="651"/>
    <vehicle id="downLT_349" type="SUMO_DEFAULT_TYPE" route="E2S" depart="651" color="1,0,0"/>
    <vehicle id="right_350" type="SUMO_DEFAULT_TYPE" route="W2E" depart="653"/>
    <vehicle id="leftLT_351" type="SUMO_DEFAULT_TYPE" route="N2E" depart="653" color="1,0,0"/>
    <vehicle id="right_352" type="SUMO_DEFAULT_TYPE" route="W2E" depart="654"/>
    <vehicle id="up_353" type="SUMO_DEFAULT_TYPE" route="S2N" depart="655"/>
    <vehicle id="left_354" type="SUMO_DEFAULT_TYPE" route="E2W" depart="656"/>
    <vehicle id="leftLT_355" type="SUMO_DEFAULT_TYPE" route="N2E" depart="657" color="1,0,0"/>
    <vehicle id="down_356" type="SUMO_DEFAULT_TYPE" route="N2S" depart="658"/>