<routes>
    <vType id="SUMO_DEFAULT_TYPE" accel="0.8" decel="4.5" sigma="0" length="5" minGap="2" maxSpeed="70"/>

    <route id="W2E" edges="51o 1i 2o 52i"/>
    <route id="E2W" edges="52o 2i 1o 51i"/>
    <route id="N2S" edges="54o 4i 3o 53i"/>
    <route id="S2N" edges="53o 3i 4o 54i"/>

    <route id="W2N" edges="51o 1i 4o 54i"/>
    <route id="N2E" edges="54o 4i 2o 52i"/>
    <route id="E2S" edges="52o 2i 3o 53i"/>
    <route id="S2W" edges="53o 3i 1o 51i"/>

    <route id="W2S" edges="51o 1i 3o 53i"/>
    <route id="S2E" edges="53o 3i 2o 52i"/>
    <route id="E2N" edges="52o 2i 4o 54i"/>
    <route id="N2W" edges="54o 4i 1o 51i"/>


    <vehicle id="left_0" type="SUMO_DEFAULT_TYPE" route="E2W" depart="0"/>
    <vehicle id="leftRL_1" type="SUMO_DEFAULT_TYPE" route="E2W" depart="0"/>
    <vehicle id="right_2" type="SUMO_DEFAULT_TYPE" route="W2E" depart="1"/>
    <vehicle id="upLT_3" type="SUMO_DEFAULT_TYPE" route="S2N" depart="1" color="1,0,0"/>
    <vehicle id="down_4" type="SUMO_DEFAULT_TYPE" route="N2S" depart="2" color="1,0,0"/>
    <vehicle id="up_5" type="SUMO_DEFAULT_TYPE" route="S2N" depart="2" color="1,0,0"/>
    <vehicle id="rightRL_6" type="SUMO_DEFAULT_TYPE" route="W2E" depart="3"/>
    <vehicle id="downRL_7" type="SUMO_DEFAULT_TYPE" route="N2S" depart="7" color="1,0,0"/>
    <vehicle id="rightLT_8" type="SUMO_DEFAULT_TYPE" route="W2E" depart="10"/>
    <vehicle id="upRL_9" type="SUMO_DEFAULT_TYPE" route="S2N" depart="10" color="1,0,0"/>
    <vehicle id="down_10" type="SUMO_DEFAULT_TYPE" route="N2S" depart="11" color="1,0,0"/>
    <vehicle id="leftRL_11" type="SUMO_DEFAULT_TYPE" route="E2W" depart="13"/>
    <vehicle id="rightRL_12" type="SUMO_DEFAULT_TYPE" route="W2E" depart="14"/>
    <vehicle id="up_13" type="SUMO_DEFAULT_TYPE" route="S2N" depart="15" color="1,0,0"/>
    <vehicle id="up_14" type="SUMO_DEFAULT_TYPE" route="S2N" depart="17" color="1,0,0"/>
    <vehicle id="rightRL_15" type="SUMO_DEFAULT_TYPE" route="W2E" depart="18"/>
    <vehicle id="down_16" type="SUMO_DEFAULT_TYPE" route="N2S" depart="19" color="1,0,0"/>
    <vehicle id="right_17" type="SUMO_DEFAULT_TYPE" route="W2E" depart="21"/>
    <vehicle id="leftLT_18" type="SUMO_DEFAULT_TYPE" route="E2W" depart="22"/>
    <vehicle id="upRL_19" type="SUMO_DEFAULT_TYPE" route="S2N" depart="23" color="1,0,0"/>
    <vehicle id="down_20" type="SUMO_DEFAULT_TYPE" route="N2S" depart="24" color="1,0,0"/>
    <vehicle id="leftRL_21" type="SUMO_DEFAULT_TYPE" route="E2W" depart="24"/>
    <vehicle id="downRL_22" type="SUMO_DEFAULT_TYPE" route="N2S" depart="24" color="1,0,0"/>
    <vehicle id="right_23" type="SUMO_DEFAULT_TYPE" route="W2E" depart="27"/>
    <vehicle id="rightRL_24" type="SUMO_DEFAULT_TYPE" route="W2E" depart="30"/>
    <vehicle id="up_25" type="SUMO_DEFAULT_TYPE" route="S2N" depart="31" color="1,0,0"/>
    <vehicle id="downRL_26" type="SUMO_DEFAULT_TYPE" route="N2S" depart="32" color="1,0,0"/>
    <vehicle id="downRL_27" type="SUMO_DEFAULT_TYPE" route="N2S" depart="33" color="1,0,0"/>
    <vehicle id="upRL_28" type="SUMO_DEFAULT_TYPE" route="S2N" depart="34" color="1,0,0"/>
    <vehicle id="upLT_29" type="SUMO_DEFAULT_TYPE" route="S2N" depart="35" color="1,0,0"/>
    <vehicle id="up_30" type="SUMO_DEFAULT_TYPE" route="S2N" depart="36" color="1,0,0"/>
    <vehicle id="left_31" type="SUMO_DEFAULT_TYPE" route="E2W" depart="39"/>
    <vehicle id="left_32" type="SUMO_DEFAULT_TYPE" route="E2W" depart="40"/>
    <vehicle id="left_33" type="SUMO_DEFAULT_TYPE" route="E2W" depart="41"/>
    <vehicle id="leftRL_34" type="SUMO_DEFAULT_TYPE" route="E2W" depart="41"/>
    <vehicle id="right_35" type="SUMO_DEFAULT_TYPE" route="W2E" depart="42"/>
    <vehicle id="left_36" type="SUMO_DEFAULT_TYPE" route="E2W" depart="43"/>
    <vehicle id="down_37" type="SUMO_DEFAULT_TYPE" route="N2S" depart="43" color="1,0,0"/>
    <vehicle id="right_38" type="SUMO_DEFAULT_TYPE" route="W2E" depart="44"/>
    <vehicle id="up_39" type="SUMO_DEFAULT_TYPE" route="S2N" depart="45" color="1,0,0"/>
    <vehicle id="leftRL_40" type="SUMO_DEFAULT_TYPE" route="E2W" depart="45"/>
    <vehicle id="left_41" type="SUMO_DEFAULT_TYPE" route="E2W" depart="49"/>
    <vehicle id="downRL_42" type="SUMO_DEFAULT_TYPE" route="N2S" depart="49" color="1,0,0"/>
    <vehicle id="right_43" type="SUMO_DEFAULT_TYPE" route="W2E" depart="50"/>
    <vehicle id="rightRL_44" type="SUMO_DEFAULT_TYPE" route="W2E" depart="50"/>
    <vehicle id="left_45" type="SUMO_DEFAULT_TYPE" route="E2W" depart="53"/>
    <vehicle id="up_46" type="SUMO_DEFAULT_TYPE" route="S2N" depart="54" color="1,0,0"/>
    <vehicle id="rightRL_47" type="SUMO_DEFAULT_TYPE" route="W2E" depart="54"/>
    <vehicle id="downRL_48" type="SUMO_DEFAULT_TYPE" route="N2S" depart="54" color="1,0,0"/>
    <vehicle id="upRL_49" type="SUMO_DEFAULT_TYPE" route="S2N" depart="56" color="1,0,0"/>
    <vehicle id="right_50" type="SUMO_DEFAULT_TYPE" route="W2E" depart="57"/>
    <vehicle id="rightRL_51" type="SUMO_DEFAULT_TYPE" route="W2E" depart="59"/>
    <vehicle id="right_52" type="SUMO_DEFAULT_TYPE" route="W2E" depart="60"/>
    <vehicle id="rightRL_53" type="SUMO_DEFAULT_TYPE" route="W2E" depart="60"/>
    <vehicle id="left_54" type="SUMO_DEFAULT_TYPE" route="E2W" depart="68"/>
    <vehicle id="downRL_55" type="SUMO_DEFAULT_TYPE" route="N2S" depart="68" color="1,0,0"/>
    <vehicle id="upRL_56" type="SUMO_DEFAULT_TYPE" route="S2N" depart="70" color="1,0,0"/>
    <vehicle id="right_57" type="SUMO_DEFAULT_TYPE" route="W2E" depart="71"/>
    <vehicle id="right_58" type="SUMO_DEFAULT_TYPE" route="W2E" depart="72"/>
    <vehicle id="leftRL_59" type="SUMO_DEFAULT_TYPE" route="E2W" depart="72"/>
    <vehicle id="downLT_60" type="SUMO_DEFAULT_TYPE" route="N2S" depart="73" color="1,0,0"/>
    <vehicle id="rightRL_61" type="SUMO_DEFAULT_TYPE" route="W2E" depart="75"/>
    <vehicle id="rightRL_62" type="SUMO_DEFAULT_TYPE" route="W2E" depart="79"/>
    <vehicle id="upRL_63" type="SUMO_DEFAULT_TYPE" route="S2N" depart="80" color="1,0,0"/>
    <vehicle id="rightRL_64" type="SUMO_DEFAULT_TYPE" route="W2E" depart="81"/>
    <vehicle id="upRL_65" type="SUMO_DEFAULT_TYPE" route="S2N" depart="82" color="1,0,0"/>
    <vehicle id="downRL_66" type="SUMO_DEFAULT_TYPE" route="N2S" depart="84" color="1,0,0"/>
    <vehicle id="downLT_67" type="SUMO_DEFAULT_TYPE" route="N2S" depart="85" color="1,0,0"/>
    <vehicle id="left_68" type="SUMO_DEFAULT_TYPE" route="E2W" depart="86"/>
    <vehicle id="down_69" type="SUMO_DEFAULT_TYPE" route="N2S" depart="86" color="1,0,0"/>
    <vehicle id="upRL_70" type="SUMO_DEFAULT_TYPE" route="S2N" depart="87" color="1,0,0"/>
    <vehicle id="rightRL_71" type="SUMO_DEFAULT_TYPE" route="W2E" depart="88"/>
    <vehicle id="upRL_72" type="SUMO_DEFAULT_TYPE" route="S2N" depart="90" color="1,0,0"/>
    <vehicle id="left_73" type="SUMO_DEFAULT_TYPE" route="E2W" depart="91"/>
    <vehicle id="down_74" type="SUMO_DEFAULT_TYPE" route="N2S" depart="91" color="1,0,0"/>
    <vehicle id="leftRL_75" type="SUMO_DEFAULT_TYPE" route="E2W" depart="93"/>
    <vehicle id="leftLT_76" type="SUMO_DEFAULT_TYPE" route="E2W" depart="94"/>
    <vehicle id="upRL_77" type="SUMO_DEFAULT_TYPE" route="S2N" depart="94" color="1,0,0"/>
    <vehicle id="rightRL_78" type="SUMO_DEFAULT_TYPE" route="W2E" depart="95"/>
    <vehicle id="leftRL_79" type="SUMO_DEFAULT_TYPE" route="E2W" depart="95"/>
    <vehicle id="left_80" type="SUMO_DEFAULT_TYPE" route="E2W" depart="97"/>
    <vehicle id="rightLT_81" type="SUMO_DEFAULT_TYPE" route="W2E" depart="97"/>
    <vehicle id="downRL_82" type="SUMO_DEFAULT_TYPE" route="N2S" depart="97" color="1,0,0"/>
    <vehicle id="rightRL_83" type="SUMO_DEFAULT_TYPE" route="W2E" depart="98"/>
    <vehicle id="leftRL_84" type="SUMO_DEFAULT_TYPE" route="E2W" depart="98"/>
    <vehicle id="upRL_85" type="SUMO_DEFAULT_TYPE" route="S2N" depart="99" color="1,0,0"/>
    <vehicle id="right_86" type="SUMO_DEFAULT_TYPE" route="W2E" depart="103"/>
    <vehicle id="rightRL_87" type="SUMO_DEFAULT_TYPE" route="W2E" depart="103"/>
    <vehicle id="downRL_88" type="SUMO_DEFAULT_TYPE" route="N2S" depart="103" color="1,0,0"/>
    <vehicle id="left_89" type="SUMO_DEFAULT_TYPE" route="E2W" depart="105"/>
    <vehicle id="rightRL_90" type="SUMO_DEFAULT_TYPE" route="W2E" depart="106"/>
    <vehicle id="leftRL_91" type="SUMO_DEFAULT_TYPE" route="E2W" depart="106"/>
    <vehicle id="rightRL_92" type="SUMO_DEFAULT_TYPE" route="W2E" depart="109"/>
    <vehicle id="down_93" type="SUMO_DEFAULT_TYPE" route="N2S" depart="110" color="1,0,0"/>
    <vehicle id="upRL_94" type="SUMO_DEFAULT_TYPE" route="S2N" depart="114" color="1,0,0"/>
    <vehicle id="upRL_95" type="SUMO_DEFAULT_TYPE" route="S2N" depart="115" color="1,0,0"/>
    <vehicle id="right_96" type="SUMO_DEFAULT_TYPE" route="W2E" depart="116"/>
    <vehicle id="leftRL_97" type="SUMO_DEFAULT_TYPE" route="E2W" depart="116"/>
    <vehicle id="left_98" type="SUMO_DEFAULT_TYPE" route="E2W" depart="118"/>
    <vehicle id="up_99" type="SUMO_DEFAULT_TYPE" route="S2N" depart="118" color="1,0,0"/>
    <vehicle id="left_100" type="SUMO_DEFAULT_TYPE" route="E2W" depart="119"/>
    <vehicle id="leftRL_101" type="SUMO_DEFAULT_TYPE" route="E2W" depart="119"/>
    <vehicle id="downRL_102" type="SUMO_DEFAULT_TYPE" route="N2S" depart="120" color="1,0,0"/>
    <vehicle id="right_103" type="SUMO_DEFAULT_TYPE" route="W2E" depart="121"/>
    <vehicle id="left_104" type="SUMO_DEFAULT_TYPE" route="E2W" depart="123"/>
    <vehicle id="left_105" type="SUMO_DEFAULT_TYPE" route="E2W" depart="124"/>
    <vehicle id="rightRL_106" type="SUMO_DEFAULT_TYPE" route="W2E" depart="124"/>
    <vehicle id="down_107" type="SUMO_DEFAULT_TYPE" route="N2S" depart="128" color="1,0,0"/>
    <vehicle id="rightRL_108" type="SUMO_DEFAULT_TYPE" route="W2E" depart="129"/>
    <vehicle id="down_109" type="SUMO_DEFAULT_TYPE" route="N2S" depart="130" color="1,0,0"/>
    <vehicle id="leftRL_110" type="SUMO_DEFAULT_TYPE" route="E2W" depart="130"/>
    <vehicle id="downRL_111" type="SUMO_DEFAULT_TYPE" route="N2S" depart="131" color="1,0,0"/>
    <vehicle id="right_112" type="SUMO_DEFAULT_TYPE" route="W2E" depart="134"/>
    <vehicle id="left_113" type="SUMO_DEFAULT_TYPE" route="E2W" depart="134"/>
    <vehicle id="downRL_114" type="SUMO_DEFAULT_TYPE" route="N2S" depart="136" color="1,0,0"/>
    <vehicle id="left_115" type="SUMO_DEFAULT_TYPE" route="E2W" depart="138"/>
    <vehicle id="upRL_116" type="SUMO_DEFAULT_TYPE" route="S2N" depart="139" color="1,0,0"/>
    <vehicle id="up_117" type="SUMO_DEFAULT_TYPE" route="S2N" depart="141" color="1,0,0"/>
    <vehicle id="downRL_118" type="SUMO_DEFAULT_TYPE" route="N2S" depart="144" color="1,0,0"/>
    <vehicle id="down_119" type="SUMO_DEFAULT_TYPE" route="N2S" depart="150" color="1,0,0"/>
    <vehicle id="upLT_120" type="SUMO_DEFAULT_TYPE" route="S2N" depart="150" color="1,0,0"/>
    <vehicle id="right_121" type="SUMO_DEFAULT_TYPE" route="W2E" depart="153"/>
    <vehicle id="down_122" type="SUMO_DEFAULT_TYPE" route="N2S" depart="155" color="1,0,0"/>
    <vehicle id="down_123" type="SUMO_DEFAULT_TYPE" route="N2S" depart="156" color="1,0,0"/>
    <vehicle id="downRL_124" type="SUMO_DEFAULT_TYPE" route="N2S" depart="158" color="1,0,0"/>
    <vehicle id="right_125" type="SUMO_DEFAULT_TYPE" route="W2E" depart="159"/>
    <vehicle id="downRL_126" type="SUMO_DEFAULT_TYPE" route="N2S" depart="159" color="1,0,0"/>
    <vehicle id="right_127" type="SUMO_DEFAULT_TYPE" route="W2E" depart="161"/>
    <vehicle id="down_128" type="SUMO_DEFAULT_TYPE" route="N2S" depart="161" color="1,0,0"/>
    <vehicle id="leftLT_129" type="SUMO_DEFAULT_TYPE" route="E2W" depart="163"/>
    <vehicle id="downRL_130" type="SUMO_DEFAULT_TYPE" route="N2S" depart="164" color="1,0,0"/>
    <vehicle id="left_131" type="SUMO_DEFAULT_TYPE" route="E2W" depart="165"/>
    <vehicle id="downRL_132" type="SUMO_DEFAULT_TYPE" route="N2S" depart="165" color="1,0,0"/>
    <vehicle id="right_133" type="SUMO_DEFAULT_TYPE" route="W2E" depart="167"/>
    <vehicle id="downRL_134" type="SUMO_DEFAULT_TYPE" route="N2S" depart="170" color="1,0,0"/>
    <vehicle id="down_135" type="SUMO_DEFAULT_TYPE" route="N2S" depart="175" color="1,0,0"/>
    <vehicle id="up_136" type="SUMO_DEFAULT_TYPE" route="S2N" depart="175" color="1,0,0"/>
    <vehicle id="right_137" type="SUMO_DEFAULT_TYPE" route="W2E" depart="176"/>
    <vehicle id="rightRL_138" type="SUMO_DEFAULT_TYPE" route="W2E" depart="176"/>
    <vehicle id="downRL_139" type="SUMO_DEFAULT_TYPE" route="N2S" depart="176" color="1,0,0"/>
    <vehicle id="down_140" type="SUMO_DEFAULT_TYPE" route="N2S" depart="177" color="1,0,0"/>
    <vehicle id="rightRL_141" type="SUMO_DEFAULT_TYPE" route="W2E" depart="177"/>
    <vehicle id="left_142" type="SUMO_DEFAULT_TYPE" route="E2W" depart="179"/>
    <vehicle id="leftLT_143" type="SUMO_DEFAULT_TYPE" route="E2W" depart="179"/>
    <vehicle id="right_144" type="SUMO_DEFAULT_TYPE" route="W2E" depart="180"/>
    <vehicle id="down_145" type="SUMO_DEFAULT_TYPE" route="N2S" depart="180" color="1,0,0"/>
    <vehicle id="rightRL_146" type="SUMO_DEFAULT_TYPE" route="W2E" depart="180"/>
    <vehicle id="right_147" type="SUMO_DEFAULT_TYPE" route="W2E" depart="181"/>
    <vehicle id="rightRL_148" type="SUMO_DEFAULT_TYPE" route="W2E" depart="181"/>
    <vehicle id="leftRL_149" type="SUMO_DEFAULT_TYPE" route="E2W" depart="182"/>
    <vehicle id="down_150" type="SUMO_DEFAULT_TYPE" route="N2S" depart="184" color="1,0,0"/>
    <vehicle id="left_151" type="SUMO_DEFAULT_TYPE" route="E2W" depart="185"/>
    <vehicle id="downRL_152" type="SUMO_DEFAULT_TYPE" route="N2S" depart="185" color="1,0,0"/>
    <vehicle id="right_153" type="SUMO_DEFAULT_TYPE" route="W2E" depart="186"/>
    <vehicle id="rightRL_154" type="SUMO_DEFAULT_TYPE" route="W2E" depart="187"/>
    <vehicle id="left_155" type="SUMO_DEFAULT_TYPE" route="E2W" depart="192"/>
    <vehicle id="down_156" type="SUMO_DEFAULT_TYPE" route="N2S" depart="193" color="1,0,0"/>
    <vehicle id="down_157" type="SUMO_DEFAULT_TYPE" route="N2S" depart="194" color="1,0,0"/>
    <vehicle id="down_158" type="SUMO_DEFAULT_TYPE" route="N2S" depart="195" color="1,0,0"/>
    <vehicle id="upRL_159" type="SUMO_DEFAULT_TYPE" route="S2N" depart="197" color="1,0,0"/>
    <vehicle id="rightRL_160" type="SUMO_DEFAULT_TYPE" route="W2E" depart="198"/>
    <vehicle id="right_161" type="SUMO_DEFAULT_TYPE" route="W2E" depart="202"/>
    <vehicle id="down_162" type="SUMO_DEFAULT_TYPE" route="N2S" depart="202" color="1,0,0"/>
    <vehicle id="right_163" type="SUMO_DEFAULT_TYPE" route="W2E" depart="203"/>
    <vehicle id="left_164" type="SUMO_DEFAULT_TYPE" route="E2W" depart="203"/>
    <vehicle id="left_165" type="SUMO_DEFAULT_TYPE" route="E2W" depart="209"/>
    <vehicle id="rightRL_166" type="SUMO_DEFAULT_TYPE" route="W2E" depart="209"/>
    <vehicle id="up_167" type="SUMO_DEFAULT_TYPE" route="S2N" depart="210" color="1,0,0"/>
    <vehicle id="upRL_168" type="SUMO_DEFAULT_TYPE" route="S2N" depart="211" color="1,0,0"/>
    <vehicle id="upLT_169" type="SUMO_DEFAULT_TYPE" route="S2N" depart="213" color="1,0,0"/>
    <vehicle id="right_170" type="SUMO_DEFAULT_TYPE" route="W2E" depart="214"/>
    <vehicle id="upLT_171" type="SUMO_DEFAULT_TYPE" route="S2N" depart="215" color="1,0,0"/>
    <vehicle id="left_172" type="SUMO_DEFAULT_TYPE" route="E2W" depart="217"/>
    <vehicle id="down_173" type="SUMO_DEFAULT_TYPE" route="N2S" depart="218" color="1,0,0"/>
    <vehicle id="leftRL_174" type="SUMO_DEFAULT_TYPE" route="E2W" depart="219"/>
    <vehicle id="downRL_175" type="SUMO_DEFAULT_TYPE" route="N2S" depart="219" color="1,0,0"/>
    <vehicle id="right_176" type="SUMO_DEFAULT_TYPE" route="W2E" depart="220"/>
    <vehicle id="left_177" type="SUMO_DEFAULT_TYPE" route="E2W" depart="220"/>
    <vehicle id="rightRL_178" type="SUMO_DEFAULT_TYPE" route="W2E" depart="220"/>
    <vehicle id="leftRL_179" type="SUMO_DEFAULT_TYPE" route="E2W" depart="221"/>
    <vehicle id="left_180" type="SUMO_DEFAULT_TYPE" route="E2W" depart="222"/>
    <vehicle id="down_181" type="SUMO_DEFAULT_TYPE" route="N2S" depart="222" color="1,0,0"/>
    <vehicle id="upRL_182" type="SUMO_DEFAULT_TYPE" route="S2N" depart="223" color="1,0,0"/>
    <vehicle id="down_183" type="SUMO_DEFAULT_TYPE" route="N2S" depart="224" color="1,0,0"/>
    <vehicle id="leftRL_184" type="SUMO_DEFAULT_TYPE" route="E2W" depart="226"/>
    <vehicle id="upRL_185" type="SUMO_DEFAULT_TYPE" route="S2N" depart="227" color="1,0,0"/>
    <vehicle id="right_186" type="SUMO_DEFAULT_TYPE" route="W2E" depart="229"/>
    <vehicle id="upLT_187" type="SUMO_DEFAULT_TYPE" route="S2N" depart="229" color="1,0,0"/>
    <vehicle id="up_188" type="SUMO_DEFAULT_TYPE" route="S2N" depart="230" color="1,0,0"/>
    <vehicle id="left_189" type="SUMO_DEFAULT_TYPE" route="E2W" depart="231"/>
    <vehicle id="down_190" type="SUMO_DEFAULT_TYPE" route="N2S" depart="231" color="1,0,0"/>
    <vehicle id="upRL_191" type="SUMO_DEFAULT_TYPE" route="S2N" depart="233" color="1,0,0"/>
    <vehicle id="down_192" type="SUMO_DEFAULT_TYPE" route="N2S" depart="234" color="1,0,0"/>
    <vehicle id="leftRL_193" type="SUMO_DEFAULT_TYPE" route="E2W" depart="234"/>
    <vehicle id="right_194" type="SUMO_DEFAULT_TYPE" route="W2E" depart="237"/>
    <vehicle id="left_195" type="SUMO_DEFAULT_TYPE" route="E2W" depart="238"/>
    <vehicle id="rightRL_196" type="SUMO_DEFAULT_TYPE" route="W2E" depart="243"/>
    <vehicle id="up_197" type="SUMO_DEFAULT_TYPE" route="S2N" depart="247" color="1,0,0"/>
    <vehicle id="upRL_198" type="SUMO_DEFAULT_TYPE" route="S2N" depart="248" color="1,0,0"/>
    <vehicle id="down_199" type="SUMO_DEFAULT_TYPE" route="N2S" depart="249" color="1,0,0"/>
    <vehicle id="leftRL_200" type="SUMO_DEFAULT_TYPE" route="E2W" depart="250"/>
    <vehicle id="up_201" type="SUMO_DEFAULT_TYPE" route="S2N" depart="251" color="1,0,0"/>
    <vehicle id="leftRL_202" type="SUMO_DEFAULT_TYPE" route="E2W" depart="252"/>
    <vehicle id="downRL_203" type="SUMO_DEFAULT_TYPE" route="N2S" depart="253" color="1,0,0"/>
    <vehicle id="down_204" type="SUMO_DEFAULT_TYPE" route="N2S" depart="255" color="1,0,0"/>
    <vehicle id="leftRL_205" type="SUMO_DEFAULT_TYPE" route="E2W" depart="260"/>
    <vehicle id="down_206" type="SUMO_DEFAULT_TYPE" route="N2S" depart="261" color="1,0,0"/>
    <vehicle id="leftRL_207" type="SUMO_DEFAULT_TYPE" route="E2W" depart="261"/>
    <vehicle id="up_208" type="SUMO_DEFAULT_TYPE" route="S2N" depart="262" color="1,0,0"/>
    <vehicle id="down_209" type="SUMO_DEFAULT_TYPE" route="N2S" depart="264" color="1,0,0"/>
    <vehicle id="up_210" type="SUMO_DEFAULT_TYPE" route="S2N" depart="265" color="1,0,0"/>
    <vehicle id="right_211" type="SUMO_DEFAULT_TYPE" route="W2E" depart="267"/>
    <vehicle id="up_212" type="SUMO_DEFAULT_TYPE" route="S2N" depart="267" color="1,0,0"/>
    <vehicle id="upLT_213" type="SUMO_DEFAULT_TYPE" route="S2N" depart="267" color="1,0,0"/>
    <vehicle id="up_214" type="SUMO_DEFAULT_TYPE" route="S2N" depart="273" color="1,0,0"/>
    <vehicle id="downRL_215" type="SUMO_DEFAULT_TYPE" route="N2S" depart="274" color="1,0,0"/>
    <vehicle id="left_216" type="SUMO_DEFAULT_TYPE" route="E2W" depart="276"/>
    <vehicle id="rightRL_217" type="SUMO_DEFAULT_TYPE" route="W2E" depart="276"/>
    <vehicle id="down_218" type="SUMO_DEFAULT_TYPE" route="N2S" depart="277" color="1,0,0"/>
    <vehicle id="leftRL_219" type="SUMO_DEFAULT_TYPE" route="E2W" depart="280"/>
    <vehicle id="left_220" type="SUMO_DEFAULT_TYPE" route="E2W" depart="281"/>
    <vehicle id="downRL_221" type="SUMO_DEFAULT_TYPE" route="N2S" depart="283" color="1,0,0"/>
    <vehicle id="left_222" type="SUMO_DEFAULT_TYPE" route="E2W" depart="285"/>
    <vehicle id="up_223" type="SUMO_DEFAULT_TYPE" route="S2N" depart="285" color="1,0,0"/>
    <vehicle id="rightRL_224" type="SUMO_DEFAULT_TYPE" route="W2E" depart="285"/>
    <vehicle id="downRL_225" type="SUMO_DEFAULT_TYPE" route="N2S" depart="285" color="1,0,0"/>
    <vehicle id="left_226" type="SUMO_DEFAULT_TYPE" route="E2W" depart="289"/>
    <vehicle id="down_227" type="SUMO_DEFAULT_TYPE" route="N2S" depart="290" color="1,0,0"/>
    <vehicle id="upRL_228" type="SUMO_DEFAULT_TYPE" route="S2N" depart="290" color="1,0,0"/>
    <vehicle id="leftRL_229" type="SUMO_DEFAULT_TYPE" route="E2W" depart="291"/>
    <vehicle id="left_230" type="SUMO_DEFAULT_TYPE" route="E2W" depart="293"/>
    <vehicle id="down_231" type="SUMO_DEFAULT_TYPE" route="N2S" depart="293" color="1,0,0"/>
    <vehicle id="upRL_232" type="SUMO_DEFAULT_TYPE" route="S2N" depart="293" color="1,0,0"/>
    <vehicle id="right_233" type="SUMO_DEFAULT_TYPE" route="W2E" depart="302"/>
    <vehicle id="right_234" type="SUMO_DEFAULT_TYPE" route="W2E" depart="303"/>
    <vehicle id="down_235" type="SUMO_DEFAULT_TYPE" route="N2S" depart="307" color="1,0,0"/>
    <vehicle id="left_236" type="SUMO_DEFAULT_TYPE" route="E2W" depart="308"/>
    <vehicle id="rightLT_237" type="SUMO_DEFAULT_TYPE" route="W2E" depart="309"/>
    <vehicle id="upRL_238" type="SUMO_DEFAULT_TYPE" route="S2N" depart="310" color="1,0,0"/>
    <vehicle id="upLT_239" type="SUMO_DEFAULT_TYPE" route="S2N" depart="311" color="1,0,0"/>
    <vehicle id="rightRL_240" type="SUMO_DEFAULT_TYPE" route="W2E" depart="311"/>
    <vehicle id="right_241" type="SUMO_DEFAULT_TYPE" route="W2E" depart="313"/>
    <vehicle id="left_242" type="SUMO_DEFAULT_TYPE" route="E2W" depart="313"/>
    <vehicle id="downRL_243" type="SUMO_DEFAULT_TYPE" route="N2S" depart="313" color="1,0,0"/>
    <vehicle id="upRL_244" type="SUMO_DEFAULT_TYPE" route="S2N" depart="314" color="1,0,0"/>
    <vehicle id="leftRL_245" type="SUMO_DEFAULT_TYPE" route="E2W" depart="316"/>
    <vehicle id="leftRL_246" type="SUMO_DEFAULT_TYPE" route="E2W" depart="318"/>
    <vehicle id="downRL_247" type="SUMO_DEFAULT_TYPE" route="N2S" depart="318" color="1,0,0"/>
    <vehicle id="rightLT_248" type="SUMO_DEFAULT_TYPE" route="W2E" depart="320"/>
    <vehicle id="left_249" type="SUMO_DEFAULT_TYPE" route="E2W" depart="322"/>
    <vehicle id="down_250" type="SUMO_DEFAULT_TYPE" route="N2S" depart="322" color="1,0,0"/>
    <vehicle id="up_251" type="SUMO_DEFAULT_TYPE" route="S2N" depart="322" color="1,0,0"/>
    <vehicle id="right_252" type="SUMO_DEFAULT_TYPE" route="W2E" depart="326"/>
    <vehicle id="down_253" type="SUMO_DEFAULT_TYPE" route="N2S" depart="328" color="1,0,0"/>
    <vehicle id="downRL_254" type="SUMO_DEFAULT_TYPE" route="N2S" depart="329" color="1,0,0"/>
    <vehicle id="right_255" type="SUMO_DEFAULT_TYPE" route="W2E" depart="330"/>
    <vehicle id="downRL_256" type="SUMO_DEFAULT_TYPE" route="N2S" depart="330" color="1,0,0"/>
    <vehicle id="downRL_257" type="SUMO_DEFAULT_TYPE" route="N2S" depart="332" color="1,0,0"/>
    <vehicle id="left_258" type="SUMO_DEFAULT_TYPE" route="E2W" depart="333"/>
    <vehicle id="down_259" type="SUMO_DEFAULT_TYPE" route="N2S" depart="334" color="1,0,0"/>
    <vehicle id="right_260" type="SUMO_DEFAULT_TYPE" route="W2E" depart="335"/>
    <vehicle id="left_261" type="SUMO_DEFAULT_TYPE" route="E2W" depart="336"/>
    <vehicle id="up_262" type="SUMO_DEFAULT_TYPE" route="S2N" depart="339" color="1,0,0"/>
    <vehicle id="rightRL_263" type="SUMO_DEFAULT_TYPE" route="W2E" depart="339"/>
    <vehicle id="downRL_264" type="SUMO_DEFAULT_TYPE" route="N2S" depart="339" color="1,0,0"/>
    <vehicle id="upRL_265" type="SUMO_DEFAULT_TYPE" route="S2N" depart="339" color="1,0,0"/>
    <vehicle id="down_266" type="SUMO_DEFAULT_TYPE" route="N2S" depart="341" color="1,0,0"/>
    <vehicle id="leftRL_267" type="SUMO_DEFAULT_TYPE" route="E2W" depart="341"/>
    <vehicle id="leftRL_268" type="SUMO_DEFAULT_TYPE" route="E2W" depart="343"/>
    <vehicle id="down_269" type="SUMO_DEFAULT_TYPE" route="N2S" depart="345" color="1,0,0"/>
    <vehicle id="right_270" type="SUMO_DEFAULT_TYPE" route="W2E" depart="346"/>
    <vehicle id="up_271" type="SUMO_DEFAULT_TYPE" route="S2N" depart="346" color="1,0,0"/>
    <vehicle id="rightRL_272" type="SUMO_DEFAULT_TYPE" route="W2E" depart="349"/>
    <vehicle id="rightRL_273" type="SUMO_DEFAULT_TYPE" route="W2E" depart="350"/>
    <vehicle id="down_274" type="SUMO_DEFAULT_TYPE" route="N2S" depart="354" color="1,0,0"/>
    <vehicle id="right_275" type="SUMO_DEFAULT_TYPE" route="W2E" depart="355"/>
    <vehicle id="right_276" type="SUMO_DEFAULT_TYPE" route="W2E" depart="357"/>
    <vehicle id="up_277" type="SUMO_DEFAULT_TYPE" route="S2N" depart="358" color="1,0,0"/>
    <vehicle id="rightRL_278" type="SUMO_DEFAULT_TYPE" route="W2E" depart="358"/>
    <vehicle id="upRL_279" type="SUMO_DEFAULT_TYPE" route="S2N" depart="358" color="1,0,0"/>
    <vehicle id="down_280" type="SUMO_DEFAULT_TYPE" route="N2S" depart="359" color="1,0,0"/>
    <vehicle id="downLT_281" type="SUMO_DEFAULT_TYPE" route="N2S" depart="362" color="1,0,0"/>
    <vehicle id="upRL_282" type="SUMO_DEFAULT_TYPE" route="S2N" depart="362" color="1,0,0"/>
    <vehicle id="up_283" type="SUMO_DEFAULT_TYPE" route="S2N" depart="363" color="1,0,0"/>
    <vehicle id="upLT_284" type="SUMO_DEFAULT_TYPE" route="S2N" depart="363" color="1,0,0"/>
    <vehicle id="upRL_285" type="SUMO_DEFAULT_TYPE" route="S2N" depart="365" color="1,0,0"/>
    <vehicle id="right_286" type="SUMO_DEFAULT_TYPE" route="W2E" depart="366"/>
    <vehicle id="leftRL_287" type="SUMO_DEFAULT_TYPE" route="E2W" depart="367"/>
    <vehicle id="leftRL_288" type="SUMO_DEFAULT_TYPE" route="E2W" depart="368"/>
    <vehicle id="upRL_289" type="SUMO_DEFAULT_TYPE" route="S2N" depart="370" color="1,0,0"/>
    <vehicle id="right_290" type="SUMO_DEFAULT_TYPE" route="W2E" depart="371"/>
    <vehicle id="right_291" type="SUMO_DEFAULT_TYPE" route="W2E" depart="372"/>
    <vehicle id="leftRL_292" type="SUMO_DEFAULT_TYPE" route="E2W" depart="374"/>
    <vehicle id="left_293" type="SUMO_DEFAULT_TYPE" route="E2W" depart="375"/>
    <vehicle id="upRL_294" type="SUMO_DEFAULT_TYPE" route="S2N" depart="376" color="1,0,0"/>
    <vehicle id="rightRL_295" type="SUMO_DEFAULT_TYPE" route="W2E" depart="377"/>
    <vehicle id="left_296" type="SUMO_DEFAULT_TYPE" route="E2W" depart="378"/>
    <vehicle id="up_297" type="SUMO_DEFAULT_TYPE" route="S2N" depart="378" color="1,0,0"/>
    <vehicle id="upRL_298" type="SUMO_DEFAULT_TYPE" route="S2N" depart="378" color="1,0,0"/>
    <vehicle id="right_299" type="SUMO_DEFAULT_TYPE" route="W2E" depart="379"/>
    <vehicle id="left_300" type="SUMO_DEFAULT_TYPE" route="E2W" depart="384"/>
    <vehicle id="rightRL_301" type="SUMO_DEFAULT_TYPE" route="W2E" depart="384"/>
    <vehicle id="upRL_302" type="SUMO_DEFAULT_TYPE" route="S2N" depart="385" color="1,0,0"/>
    <vehicle id="right_303" type="SUMO_DEFAULT_TYPE" route="W2E" depart="386"/>
    <vehicle id="downRL_304" type="SUMO_DEFAULT_TYPE" route="N2S" depart="386" color="1,0,0"/>
    <vehicle id="down_305" type="SUMO_DEFAULT_TYPE" route="N2S" depart="387" color="1,0,0"/>
    <vehicle id="leftRL_306" type="SUMO_DEFAULT_TYPE" route="E2W" depart="388"/>
    <vehicle id="leftRL_307" type="SUMO_DEFAULT_TYPE" route="E2W" depart="389"/>
    <vehicle id="left_308" type="SUMO_DEFAULT_TYPE" route="E2W" depart="390"/>
    <vehicle id="down_309" type="SUMO_DEFAULT_TYPE" route="N2S" depart="391" color="1,0,0"/>
    <vehicle id="leftRL_310" type="SUMO_DEFAULT_TYPE" route="E2W" depart="391"/>
    <vehicle id="down_311" type="SUMO_DEFAULT_TYPE" route="N2S" depart="392" color="1,0,0"/>
    <vehicle id="right_312" type="SUMO_DEFAULT_TYPE" route="W2E" depart="394"/>
    <vehicle id="down_313" type="SUMO_DEFAULT_TYPE" route="N2S" depart="394" color="1,0,0"/>
    <vehicle id="rightRL_314" type="SUMO_DEFAULT_TYPE" route="W2E" depart="394"/>
    <vehicle id="down_315" type="SUMO_DEFAULT_TYPE" route="N2S" depart="395" color="1,0,0"/>
    <vehicle id="downRL_316" type="SUMO_DEFAULT_TYPE" route="N2S" depart="395" color="1,0,0"/>
    <vehicle id="up_317" type="SUMO_DEFAULT_TYPE" route="S2N" depart="397" color="1,0,0"/>
    <vehicle id="leftRL_318" type="SUMO_DEFAULT_TYPE" route="E2W" depart="397"/>
    <vehicle id="right_319" type="SUMO_DEFAULT_TYPE" route="W2E" depart="403"/>
    <vehicle id="down_320" type="SUMO_DEFAULT_TYPE" route="N2S" depart="403" color="1,0,0"/>
    <vehicle id="rightRL_321" type="SUMO_DEFAULT_TYPE" route="W2E" depart="403"/>
    <vehicle id="down_322" type="SUMO_DEFAULT_TYPE" route="N2S" depart="406" color="1,0,0"/>
    <vehicle id="downRL_323" type="SUMO_DEFAULT_TYPE" route="N2S" depart="406" color="1,0,0"/>
    <vehicle id="leftLT_324" type="SUMO_DEFAULT_TYPE" route="E2W" depart="411"/>
    <vehicle id="upRL_325" type="SUMO_DEFAULT_TYPE" route="S2N" depart="411" color="1,0,0"/>
    <vehicle id="leftRL_326" type="SUMO_DEFAULT_TYPE" route="E2W" depart="412"/>
    <vehicle id="up_327" type="SUMO_DEFAULT_TYPE" route="S2N" depart="413" color="1,0,0"/>
    <vehicle id="up_328" type="SUMO_DEFAULT_TYPE" route="S2N" depart="414" color="1,0,0"/>
    <vehicle id="leftLT_329" type="SUMO_DEFAULT_TYPE" route="E2W" depart="417"/>
    <vehicle id="upRL_330" type="SUMO_DEFAULT_TYPE" route="S2N" depart="418" color="1,0,0"/>
    <vehicle id="rightRL_331" type="SUMO_DEFAULT_TYPE" route="W2E" depart="421"/>
    <vehicle id="rightRL_332" type="SUMO_DEFAULT_TYPE" route="W2E" depart="423"/>
    <vehicle id="down_333" type="SUMO_DEFAULT_TYPE" route="N2S" depart="425" color="1,0,0"/>
    <vehicle id="rightRL_334" type="SUMO_DEFAULT_TYPE" route="W2E" depart="425"/>
    <vehicle id="upRL_335" type="SUMO_DEFAULT_TYPE" route="S2N" depart="426" color="1,0,0"/>
    <vehicle id="leftRL_336" type="SUMO_DEFAULT_TYPE" route="E2W" depart="427"/>
    <vehicle id="downRL_337" type="SUMO_DEFAULT_TYPE" route="N2S" depart="433" color="1,0,0"/>
    <vehicle id="rightRL_338" type="SUMO_DEFAULT_TYPE" route="W2E" depart="434"/>
    <vehicle id="up_339" type="SUMO_DEFAULT_TYPE" route="S2N" depart="435" color="1,0,0"/>
    <vehicle id="rightRL_340" type="SUMO_DEFAULT_TYPE" route="W2E" depart="435"/>