<routes>
        <vType id="SUMO_DEFAULT_TYPE" accel="0.8" decel="4.5" sigma="0" length="5" minGap="2" maxSpeed="70"/>

        <route id="W2E" edges="51o 1i 2o 52i" />
        <route id="E2W" edges="52o 2i 1o 51i" />
        <route id="N2S" edges="54o 4i 3o 53i" />
        <route id="S2N" edges="53o 3i 4o 54i" />

        <route id="W2N" edges="51o 1i 4o 54i" />
        <route id="N2E" edges="54o 4i 2o 52i" />
        <route id="E2S" edges="52o 2i 3o 53i" />
        <route id="S2W" edges="53o 3i 1o 51i" />

        <route id="W2S" edges="51o 1i 3o 53i" />
        <route id="S2E" edges="53o 3i 2o 52i" />
        <route id="E2N" edges="52o 2i 4o 54i" />
        <route id="N2W" edges="54o 4i 1o 51i" />

        
    <vehicle id="left_0" type="SUMO_DEFAULT_TYPE" route="E2W" depart="0" />
    <vehicle id="left_1" type="SUMO_DEFAULT_TYPE" route="E2W" depart="1" />
    <vehicle id="rightLT_2" type="SUMO_DEFAULT_TYPE" route="W2N" depart="1" />
    <vehicle id="up_3" type="SUMO_DEFAULT_TYPE" route="S2N" depart="2" color="1,0,0"/>
    <vehicle id="down_4" type="SUMO_DEFAULT_TYPE" route="N2S" depart="3" color="1,0,0"/>
    <vehicle id="up_5" type="SUMO_DEFAULT_TYPE" route="S2N" depart="3" color="1,0,0"/>
    <vehicle id="left_6" type="SUMO_DEFAULT_TYPE" route="E2W" depart="5" />
    <vehicle id="up_7" type="SUMO_DEFAULT_TYPE" route="S2N" depart="8" color="1,0,0"/>
    <vehicle id="right_8" type="SUMO_DEFAULT_TYPE" route="W2E" depart="11" />
    <vehicle id="left_9" type="SUMO_DEFAULT_TYPE" route="E2W" depart="11" />
    <vehicle id="down_10" type="SUMO_DEFAULT_TYPE" route="N2S" depart="11" color="1,0,0"/>
    <vehicle id="rightLT_11" type="SUMO_DEFAULT_TYPE" route="W2N" depart="12" />
    <vehicle id="rightLT_12" type="SUMO_DEFAULT_TYPE" route="W2N" depart="15" />
    <vehicle id="downLT_13" type="SUMO_DEFAULT_TYPE" route="E2S" depart="15" color="1,0,0"/>
    <vehicle id="up_14" type="SUMO_DEFAULT_TYPE" route="S2N" depart="16" color="1,0,0"/>
    <vehicle id="right_15" type="SUMO_DEFAULT_TYPE" route="W2E" depart="17" />
    <vehicle id="right_16" type="SUMO_DEFAULT_TYPE" route="W2E" depart="20" />
    <vehicle id="right_17" type="SUMO_DEFAULT_TYPE" route="W2E" depart="22" />
    <vehicle id="right_18" type="SUMO_DEFAULT_TYPE" route="W2E" depart="28" />
    <vehicle id="right_19" type="SUMO_DEFAULT_TYPE" route="W2E" depart="32" />
    <vehicle id="leftLT_20" type="SUMO_DEFAULT_TYPE" route="N2E" depart="33" />
    <vehicle id="down_21" type="SUMO_DEFAULT_TYPE" route="N2S" depart="36" color="1,0,0"/>
    <vehicle id="left_22" type="SUMO_DEFAULT_TYPE" route="E2W" depart="37" />
    <vehicle id="down_23" type="SUMO_DEFAULT_TYPE" route="N2S" depart="37" color="1,0,0"/>
    <vehicle id="rightLT_24" type="SUMO_DEFAULT_TYPE" route="W2N" depart="40" />
    <vehicle id="downLT_25" type="SUMO_DEFAULT_TYPE" route="E2S" depart="42" color="1,0,0"/>
    <vehicle id="right_26" type="SUMO_DEFAULT_TYPE" route="W2E" depart="46" />
    <vehicle id="down_27" type="SUMO_DEFAULT_TYPE" route="N2S" depart="49" color="1,0,0"/>
    <vehicle id="upLT_28" type="SUMO_DEFAULT_TYPE" route="S2W" depart="51" color="1,0,0"/>
    <vehicle id="up_29" type="SUMO_DEFAULT_TYPE" route="S2N" depart="52" color="1,0,0"/>
    <vehicle id="up_30" type="SUMO_DEFAULT_TYPE" route="S2N" depart="53" color="1,0,0"/>
    <vehicle id="up_31" type="SUMO_DEFAULT_TYPE" route="S2N" depart="54" color="1,0,0"/>
    <vehicle id="left_32" type="SUMO_DEFAULT_TYPE" route="E2W" depart="60" />
    <vehicle id="leftLT_33" type="SUMO_DEFAULT_TYPE" route="N2E" depart="61" />
    <vehicle id="leftLT_34" type="SUMO_DEFAULT_TYPE" route="N2E" depart="62" />
    <vehicle id="right_35" type="SUMO_DEFAULT_TYPE" route="W2E" depart="63" />
    <vehicle id="downLT_36" type="SUMO_DEFAULT_TYPE" route="E2S" depart="64" color="1,0,0"/>
    <vehicle id="right_37" type="SUMO_DEFAULT_TYPE" route="W2E" depart="66" />
    <vehicle id="upLT_38" type="SUMO_DEFAULT_TYPE" route="S2W" depart="67" color="1,0,0"/>
    <vehicle id="right_39" type="SUMO_DEFAULT_TYPE" route="W2E" depart="69" />
    <vehicle id="leftLT_40" type="SUMO_DEFAULT_TYPE" route="N2E" depart="73" />
    <vehicle id="downLT_41" type="SUMO_DEFAULT_TYPE" route="E2S" depart="74" color="1,0,0"/>
    <vehicle id="right_42" type="SUMO_DEFAULT_TYPE" route="W2E" depart="75" />
    <vehicle id="right_43" type="SUMO_DEFAULT_TYPE" route="W2E" depart="76" />
    <vehicle id="leftLT_44" type="SUMO_DEFAULT_TYPE" route="N2E" depart="79" />
    <vehicle id="up_45" type="SUMO_DEFAULT_TYPE" route="S2N" depart="81" color="1,0,0"/>
    <vehicle id="right_46" type="SUMO_DEFAULT_TYPE" route="W2E" depart="82" />
    <vehicle id="down_47" type="SUMO_DEFAULT_TYPE" route="N2S" depart="82" color="1,0,0"/>
    <vehicle id="up_48" type="SUMO_DEFAULT_TYPE" route="S2N" depart="85" color="1,0,0"/>
    <vehicle id="rightLT_49" type="SUMO_DEFAULT_TYPE" route="W2N" depart="85" />
    <vehicle id="up_50" type="SUMO_DEFAULT_TYPE" route="S2N" depart="89" color="1,0,0"/>
    <vehicle id="right_51" type="SUMO_DEFAULT_TYPE" route="W2E" depart="90" />
    <vehicle id="right_52" type="SUMO_DEFAULT_TYPE" route="W2E" depart="91" />
    <vehicle id="left_53" type="SUMO_DEFAULT_TYPE" route="E2W" depart="92" />
    <vehicle id="left_54" type="SUMO_DEFAULT_TYPE" route="E2W" depart="102" />
    <vehicle id="down_55" type="SUMO_DEFAULT_TYPE" route="N2S" depart="103" color="1,0,0"/>
    <vehicle id="up_56" type="SUMO_DEFAULT_TYPE" route="S2N" depart="106" color="1,0,0"/>
    <vehicle id="down_57" type="SUMO_DEFAULT_TYPE" route="N2S" depart="107" color="1,0,0"/>
    <vehicle id="right_58" type="SUMO_DEFAULT_TYPE" route="W2E" depart="108" />
    <vehicle id="left_59" type="SUMO_DEFAULT_TYPE" route="E2W" depart="109" />
    <vehicle id="down_60" type="SUMO_DEFAULT_TYPE" route="N2S" depart="110" color="1,0,0"/>
    <vehicle id="left_61" type="SUMO_DEFAULT_TYPE" route="E2W" depart="116" />
    <vehicle id="rightLT_62" type="SUMO_DEFAULT_TYPE" route="W2N" depart="119" />
    <vehicle id="downLT_63" type="SUMO_DEFAULT_TYPE" route="E2S" depart="120" color="1,0,0"/>
    <vehicle id="up_64" type="SUMO_DEFAULT_TYPE" route="S2N" depart="121" color="1,0,0"/>
    <vehicle id="up_65" type="SUMO_DEFAULT_TYPE" route="S2N" depart="124" color="1,0,0"/>
    <vehicle id="right_66" type="SUMO_DEFAULT_TYPE" route="W2E" depart="125" />
    <vehicle id="leftLT_67" type="SUMO_DEFAULT_TYPE" route="N2E" depart="126" />
    <vehicle id="down_68" type="SUMO_DEFAULT_TYPE" route="N2S" depart="127" color="1,0,0"/>
    <vehicle id="down_69" type="SUMO_DEFAULT_TYPE" route="N2S" depart="128" color="1,0,0"/>
    <vehicle id="left_70" type="SUMO_DEFAULT_TYPE" route="E2W" depart="129" />
    <vehicle id="down_71" type="SUMO_DEFAULT_TYPE" route="N2S" depart="129" color="1,0,0"/>
    <vehicle id="left_72" type="SUMO_DEFAULT_TYPE" route="E2W" depart="131" />
    <vehicle id="right_73" type="SUMO_DEFAULT_TYPE" route="W2E" depart="133" />
    <vehicle id="left_74" type="SUMO_DEFAULT_TYPE" route="E2W" depart="134" />
    <vehicle id="up_75" type="SUMO_DEFAULT_TYPE" route="S2N" depart="136" color="1,0,0"/>
    <vehicle id="down_76" type="SUMO_DEFAULT_TYPE" route="N2S" depart="139" color="1,0,0"/>
    <vehicle id="leftLT_77" type="SUMO_DEFAULT_TYPE" route="N2E" depart="140" />
    <vehicle id="leftLT_78" type="SUMO_DEFAULT_TYPE" route="N2E" depart="141" />
    <vehicle id="up_79" type="SUMO_DEFAULT_TYPE" route="S2N" depart="142" color="1,0,0"/>
    <vehicle id="right_80" type="SUMO_DEFAULT_TYPE" route="W2E" depart="146" />
    <vehicle id="downLT_81" type="SUMO_DEFAULT_TYPE" route="E2S" depart="146" color="1,0,0"/>
    <vehicle id="right_82" type="SUMO_DEFAULT_TYPE" route="W2E" depart="148" />
    <vehicle id="left_83" type="SUMO_DEFAULT_TYPE" route="E2W" depart="148" />
    <vehicle id="left_84" type="SUMO_DEFAULT_TYPE" route="E2W" depart="149" />
    <vehicle id="right_85" type="SUMO_DEFAULT_TYPE" route="W2E" depart="155" />
    <vehicle id="right_86" type="SUMO_DEFAULT_TYPE" route="W2E" depart="160" />
    <vehicle id="left_87" type="SUMO_DEFAULT_TYPE" route="E2W" depart="160" />
    <vehicle id="down_88" type="SUMO_DEFAULT_TYPE" route="N2S" depart="165" color="1,0,0"/>
    <vehicle id="right_89" type="SUMO_DEFAULT_TYPE" route="W2E" depart="170" />
    <vehicle id="leftLT_90" type="SUMO_DEFAULT_TYPE" route="N2E" depart="171" />
    <vehicle id="up_91" type="SUMO_DEFAULT_TYPE" route="S2N" depart="172" color="1,0,0"/>
    <vehicle id="upLT_92" type="SUMO_DEFAULT_TYPE" route="S2W" depart="173" color="1,0,0"/>
    <vehicle id="right_93" type="SUMO_DEFAULT_TYPE" route="W2E" depart="174" />
    <vehicle id="left_94" type="SUMO_DEFAULT_TYPE" route="E2W" depart="175" />
    <vehicle id="right_95" type="SUMO_DEFAULT_TYPE" route="W2E" depart="176" />
    <vehicle id="left_96" type="SUMO_DEFAULT_TYPE" route="E2W" depart="177" />
    <vehicle id="up_97" type="SUMO_DEFAULT_TYPE" route="S2N" depart="177" color="1,0,0"/>
    <vehicle id="leftLT_98" type="SUMO_DEFAULT_TYPE" route="N2E" depart="178" />
    <vehicle id="down_99" type="SUMO_DEFAULT_TYPE" route="N2S" depart="181" color="1,0,0"/>
    <vehicle id="down_100" type="SUMO_DEFAULT_TYPE" route="N2S" depart="185" color="1,0,0"/>
    <vehicle id="left_101" type="SUMO_DEFAULT_TYPE" route="E2W" depart="186" />
    <vehicle id="right_102" type="SUMO_DEFAULT_TYPE" route="W2E" depart="187" />
    <vehicle id="left_103" type="SUMO_DEFAULT_TYPE" route="E2W" depart="188" />
    <vehicle id="down_104" type="SUMO_DEFAULT_TYPE" route="N2S" depart="188" color="1,0,0"/>
    <vehicle id="down_105" type="SUMO_DEFAULT_TYPE" route="N2S" depart="192" color="1,0,0"/>
    <vehicle id="rightLT_106" type="SUMO_DEFAULT_TYPE" route="W2N" depart="194" />
    <vehicle id="down_107" type="SUMO_DEFAULT_TYPE" route="N2S" depart="195" color="1,0,0"/>
    <vehicle id="left_108" type="SUMO_DEFAULT_TYPE" route="E2W" depart="196" />
    <vehicle id="right_109" type="SUMO_DEFAULT_TYPE" route="W2E" depart="201" />
    <vehicle id="left_110" type="SUMO_DEFAULT_TYPE" route="E2W" depart="201" />
    <vehicle id="right_111" type="SUMO_DEFAULT_TYPE" route="W2E" depart="203" />
    <vehicle id="left_112" type="SUMO_DEFAULT_TYPE" route="E2W" depart="203" />
    <vehicle id="down_113" type="SUMO_DEFAULT_TYPE" route="N2S" depart="205" color="1,0,0"/>
    <vehicle id="left_114" type="SUMO_DEFAULT_TYPE" route="E2W" depart="207" />
    <vehicle id="left_115" type="SUMO_DEFAULT_TYPE" route="E2W" depart="215" />
    <vehicle id="upLT_116" type="SUMO_DEFAULT_TYPE" route="S2W" depart="216" color="1,0,0"/>
    <vehicle id="down_117" type="SUMO_DEFAULT_TYPE" route="N2S" depart="217" color="1,0,0"/>
    <vehicle id="up_118" type="SUMO_DEFAULT_TYPE" route="S2N" depart="218" color="1,0,0"/>
    <vehicle id="down_119" type="SUMO_DEFAULT_TYPE" route="N2S" depart="225" color="1,0,0"/>
    <vehicle id="upLT_120" type="SUMO_DEFAULT_TYPE" route="S2W" depart="225" color="1,0,0"/>
    <vehicle id="up_121" type="SUMO_DEFAULT_TYPE" route="S2N" depart="227" color="1,0,0"/>
    <vehicle id="rightLT_122" type="SUMO_DEFAULT_TYPE" route="W2N" depart="229" />
    <vehicle id="down_123" type="SUMO_DEFAULT_TYPE" route="N2S" depart="234" color="1,0,0"/>
    <vehicle id="down_124" type="SUMO_DEFAULT_TYPE" route="N2S" depart="238" color="1,0,0"/>
    <vehicle id="left_125" type="SUMO_DEFAULT_TYPE" route="E2W" depart="242" />
    <vehicle id="up_126" type="SUMO_DEFAULT_TYPE" route="S2N" depart="242" color="1,0,0"/>
    <vehicle id="left_127" type="SUMO_DEFAULT_TYPE" route="E2W" depart="245" />
    <vehicle id="down_128" type="SUMO_DEFAULT_TYPE" route="N2S" depart="245" color="1,0,0"/>
    <vehicle id="down_129" type="SUMO_DEFAULT_TYPE" route="N2S" depart="247" color="1,0,0"/>
    <vehicle id="right_130" type="SUMO_DEFAULT_TYPE" route="W2E" depart="248" />
    <vehicle id="up_131" type="SUMO_DEFAULT_TYPE" route="S2N" depart="254" color="1,0,0"/>
    <vehicle id="down_132" type="SUMO_DEFAULT_TYPE" route="N2S" depart="256" color="1,0,0"/>
    <vehicle id="right_133" type="SUMO_DEFAULT_TYPE" route="W2E" depart="264" />
    <vehicle id="right_134" type="SUMO_DEFAULT_TYPE" route="W2E" depart="265" />
    <vehicle id="down_135" type="SUMO_DEFAULT_TYPE" route="N2S" depart="265" color="1,0,0"/>
    <vehicle id="downLT_136" type="SUMO_DEFAULT_TYPE" route="E2S" depart="265" color="1,0,0"/>
    <vehicle id="right_137" type="SUMO_DEFAULT_TYPE" route="W2E" depart="269" />
    <vehicle id="left_138" type="SUMO_DEFAULT_TYPE" route="E2W" depart="269" />
    <vehicle id="right_139" type="SUMO_DEFAULT_TYPE" route="W2E" depart="270" />
    <vehicle id="down_140" type="SUMO_DEFAULT_TYPE" route="N2S" depart="270" color="1,0,0"/>
    <vehicle id="right_141" type="SUMO_DEFAULT_TYPE" route="W2E" depart="271" />
    <vehicle id="rightLT_142" type="SUMO_DEFAULT_TYPE" route="W2N" depart="271" />
    <vehicle id="left_143" type="SUMO_DEFAULT_TYPE" route="E2W" depart="274" />
    <vehicle id="left_144" type="SUMO_DEFAULT_TYPE" route="E2W" depart="275" />
    <vehicle id="down_145" type="SUMO_DEFAULT_TYPE" route="N2S" depart="276" color="1,0,0"/>
    <vehicle id="leftLT_146" type="SUMO_DEFAULT_TYPE" route="N2E" depart="277" />
    <vehicle id="downLT_147" type="SUMO_DEFAULT_TYPE" route="E2S" depart="278" color="1,0,0"/>
    <vehicle id="right_148" type="SUMO_DEFAULT_TYPE" route="W2E" depart="279" />
    <vehicle id="right_149" type="SUMO_DEFAULT_TYPE" route="W2E" depart="281" />
    <vehicle id="down_150" type="SUMO_DEFAULT_TYPE" route="N2S" depart="282" color="1,0,0"/>
    <vehicle id="left_151" type="SUMO_DEFAULT_TYPE" route="E2W" depart="288" />
    <vehicle id="up_152" type="SUMO_DEFAULT_TYPE" route="S2N" depart="290" color="1,0,0"/>
    <vehicle id="down_153" type="SUMO_DEFAULT_TYPE" route="N2S" depart="291" color="1,0,0"/>
    <vehicle id="downLT_154" type="SUMO_DEFAULT_TYPE" route="E2S" depart="292" color="1,0,0"/>
    <vehicle id="upLT_155" type="SUMO_DEFAULT_TYPE" route="S2W" depart="296" color="1,0,0"/>
    <vehicle id="right_156" type="SUMO_DEFAULT_TYPE" route="W2E" depart="298" />
    <vehicle id="right_157" type="SUMO_DEFAULT_TYPE" route="W2E" depart="303" />
    <vehicle id="down_158" type="SUMO_DEFAULT_TYPE" route="N2S" depart="303" color="1,0,0"/>
    <vehicle id="leftLT_159" type="SUMO_DEFAULT_TYPE" route="N2E" depart="304" />
    <vehicle id="left_160" type="SUMO_DEFAULT_TYPE" route="E2W" depart="311" />
    <vehicle id="rightLT_161" type="SUMO_DEFAULT_TYPE" route="W2N" depart="314" />
    <vehicle id="up_162" type="SUMO_DEFAULT_TYPE" route="S2N" depart="315" color="1,0,0"/>
    <vehicle id="right_163" type="SUMO_DEFAULT_TYPE" route="W2E" depart="317" />
    <vehicle id="left_164" type="SUMO_DEFAULT_TYPE" route="E2W" depart="317" />
    <vehicle id="upLT_165" type="SUMO_DEFAULT_TYPE" route="S2W" depart="317" color="1,0,0"/>
    <vehicle id="up_166" type="SUMO_DEFAULT_TYPE" route="S2N" depart="320" color="1,0,0"/>
    <vehicle id="right_167" type="SUMO_DEFAULT_TYPE" route="W2E" depart="321" />
    <vehicle id="up_168" type="SUMO_DEFAULT_TYPE" route="S2N" depart="323" color="1,0,0"/>
    <vehicle id="down_169" type="SUMO_DEFAULT_TYPE" route="N2S" depart="327" color="1,0,0"/>
    <vehicle id="leftLT_170" type="SUMO_DEFAULT_TYPE" route="N2E" depart="329" />
    <vehicle id="right_171" type="SUMO_DEFAULT_TYPE" route="W2E" depart="330" />
    <vehicle id="left_172" type="SUMO_DEFAULT_TYPE" route="E2W" depart="330" />
    <vehicle id="right_173" type="SUMO_DEFAULT_TYPE" route="W2E" depart="331" />
    <vehicle id="left_174" type="SUMO_DEFAULT_TYPE" route="E2W" depart="333" />
    <vehicle id="down_175" type="SUMO_DEFAULT_TYPE" route="N2S" depart="333" color="1,0,0"/>
    <vehicle id="upLT_176" type="SUMO_DEFAULT_TYPE" route="S2W" depart="335" color="1,0,0"/>
    <vehicle id="down_177" type="SUMO_DEFAULT_TYPE" route="N2S" depart="336" color="1,0,0"/>
    <vehicle id="left_178" type="SUMO_DEFAULT_TYPE" route="E2W" depart="338" />
    <vehicle id="left_179" type="SUMO_DEFAULT_TYPE" route="E2W" depart="340" />
    <vehicle id="left_180" type="SUMO_DEFAULT_TYPE" route="E2W" depart="341" />
    <vehicle id="upLT_181" type="SUMO_DEFAULT_TYPE" route="S2W" depart="341" color="1,0,0"/>
    <vehicle id="rightLT_182" type="SUMO_DEFAULT_TYPE" route="W2N" depart="343" />
    <vehicle id="up_183" type="SUMO_DEFAULT_TYPE" route="S2N" depart="344" color="1,0,0"/>
    <vehicle id="up_184" type="SUMO_DEFAULT_TYPE" route="S2N" depart="345" color="1,0,0"/>
    <vehicle id="left_185" type="SUMO_DEFAULT_TYPE" route="E2W" depart="347" />
    <vehicle id="down_186" type="SUMO_DEFAULT_TYPE" route="N2S" depart="351" color="1,0,0"/>
    <vehicle id="left_187" type="SUMO_DEFAULT_TYPE" route="E2W" depart="352" />
    <vehicle id="left_188" type="SUMO_DEFAULT_TYPE" route="E2W" depart="353" />
    <vehicle id="rightLT_189" type="SUMO_DEFAULT_TYPE" route="W2N" depart="354" />
    <vehicle id="down_190" type="SUMO_DEFAULT_TYPE" route="N2S" depart="356" color="1,0,0"/>
    <vehicle id="left_191" type="SUMO_DEFAULT_TYPE" route="E2W" depart="357" />
    <vehicle id="right_192" type="SUMO_DEFAULT_TYPE" route="W2E" depart="362" />
    <vehicle id="leftLT_193" type="SUMO_DEFAULT_TYPE" route="N2E" depart="363" />
    <vehicle id="right_194" type="SUMO_DEFAULT_TYPE" route="W2E" depart="365" />
    <vehicle id="rightLT_195" type="SUMO_DEFAULT_TYPE" route="W2N" depart="365" />
    <vehicle id="rightLT_196" type="SUMO_DEFAULT_TYPE" route="W2N" depart="366" />
    <vehicle id="upLT_197" type="SUMO_DEFAULT_TYPE" route="S2W" depart="370" color="1,0,0"/>
    <vehicle id="up_198" type="SUMO_DEFAULT_TYPE" route="S2N" depart="373" color="1,0,0"/>
    <vehicle id="downLT_199" type="SUMO_DEFAULT_TYPE" route="E2S" depart="373" color="1,0,0"/>
    <vehicle id="left_200" type="SUMO_DEFAULT_TYPE" route="E2W" depart="376" />
    <vehicle id="up_201" type="SUMO_DEFAULT_TYPE" route="S2N" depart="377" color="1,0,0"/>
    <vehicle id="right_202" type="SUMO_DEFAULT_TYPE" route="W2E" depart="378" />
    <vehicle id="left_203" type="SUMO_DEFAULT_TYPE" route="E2W" depart="379" />
    <vehicle id="up_204" type="SUMO_DEFAULT_TYPE" route="S2N" depart="380" color="1,0,0"/>
    <vehicle id="left_205" type="SUMO_DEFAULT_TYPE" route="E2W" depart="383" />
    <vehicle id="left_206" type="SUMO_DEFAULT_TYPE" route="E2W" depart="391" />
    <vehicle id="leftLT_207" type="SUMO_DEFAULT_TYPE" route="N2E" depart="392" />
    <vehicle id="up_208" type="SUMO_DEFAULT_TYPE" route="S2N" depart="393" color="1,0,0"/>
    <vehicle id="down_209" type="SUMO_DEFAULT_TYPE" route="N2S" depart="396" color="1,0,0"/>
    <vehicle id="upLT_210" type="SUMO_DEFAULT_TYPE" route="S2W" depart="397" color="1,0,0"/>
    <vehicle id="rightLT_211" type="SUMO_DEFAULT_TYPE" route="W2N" depart="400" />
    <vehicle id="upLT_212" type="SUMO_DEFAULT_TYPE" route="S2W" depart="400" color="1,0,0"/>
    <vehicle id="up_213" type="SUMO_DEFAULT_TYPE" route="S2N" depart="401" color="1,0,0"/>
    <vehicle id="down_214" type="SUMO_DEFAULT_TYPE" route="N2S" depart="404" color="1,0,0"/>
    <vehicle id="right_215" type="SUMO_DEFAULT_TYPE" route="W2E" depart="407" />
    <vehicle id="down_216" type="SUMO_DEFAULT_TYPE" route="N2S" depart="412" color="1,0,0"/>
    <vehicle id="left_217" type="SUMO_DEFAULT_TYPE" route="E2W" depart="414" />
    <vehicle id="right_218" type="SUMO_DEFAULT_TYPE" route="W2E" depart="415" />
    <vehicle id="left_219" type="SUMO_DEFAULT_TYPE" route="E2W" depart="416" />
    <vehicle id="left_220" type="SUMO_DEFAULT_TYPE" route="E2W" depart="421" />
    <vehicle id="leftLT_221" type="SUMO_DEFAULT_TYPE" route="N2E" depart="421" />
    <vehicle id="left_222" type="SUMO_DEFAULT_TYPE" route="E2W" depart="425" />
    <vehicle id="downLT_223" type="SUMO_DEFAULT_TYPE" route="E2S" depart="425" color="1,0,0"/>
    <vehicle id="up_224" type="SUMO_DEFAULT_TYPE" route="S2N" depart="431" color="1,0,0"/>
    <vehicle id="leftLT_225" type="SUMO_DEFAULT_TYPE" route="N2E" depart="432" />
    <vehicle id="down_226" type="SUMO_DEFAULT_TYPE" route="N2S" depart="435" color="1,0,0"/>
    <vehicle id="up_227" type="SUMO_DEFAULT_TYPE" route="S2N" depart="436" color="1,0,0"/>
    <vehicle id="left_228" type="SUMO_DEFAULT_TYPE" route="E2W" depart="437" />
    <vehicle id="down_229" type="SUMO_DEFAULT_TYPE" route="N2S" depart="439" color="1,0,0"/>
    <vehicle id="leftLT_230" type="SUMO_DEFAULT_TYPE" route="N2E" depart="439" />
    <vehicle id="right_231" type="SUMO_DEFAULT_TYPE" route="W2E" depart="443" />
    <vehicle id="left_232" type="SUMO_DEFAULT_TYPE" route="E2W" depart="446" />
    <vehicle id="right_233" type="SUMO_DEFAULT_TYPE" route="W2E" depart="453" />
    <vehicle id="rightLT_234" type="SUMO_DEFAULT_TYPE" route="W2N" depart="454" />
    <vehicle id="upLT_235" type="SUMO_DEFAULT_TYPE" route="S2W" depart="456" color="1,0,0"/>
    <vehicle id="left_236" type="SUMO_DEFAULT_TYPE" route="E2W" depart="462" />
    <vehicle id="right_237" type="SUMO_DEFAULT_TYPE" route="W2E" depart="464" />
    <vehicle id="up_238" type="SUMO_DEFAULT_TYPE" route="S2N" depart="466" color="1,0,0"/>
    <vehicle id="up_239" type="SUMO_DEFAULT_TYPE" route="S2N" depart="467" color="1,0,0"/>
    <vehicle id="downLT_240" type="SUMO_DEFAULT_TYPE" route="E2S" depart="470" color="1,0,0"/>
    <vehicle id="right_241" type="SUMO_DEFAULT_TYPE" route="W2E" depart="472" />
    <vehicle id="up_242" type="SUMO_DEFAULT_TYPE" route="S2N" depart="472" color="1,0,0"/>
    <vehicle id="left_243" type="SUMO_DEFAULT_TYPE" route="E2W" depart="475" />
    <vehicle id="left_244" type="SUMO_DEFAULT_TYPE" route="E2W" depart="478" />
    <vehicle id="down_245" type="SUMO_DEFAULT_TYPE" route="N2S" depart="478" color="1,0,0"/>
    <vehicle id="right_246" type="SUMO_DEFAULT_TYPE" route="W2E" depart="479" />
    <vehicle id="rightLT_247" type="SUMO_DEFAULT_TYPE" route="W2N" depart="480" />
    <vehicle id="left_248" type="SUMO_DEFAULT_TYPE" route="E2W" depart="483" />
    <vehicle id="down_249" type="SUMO_DEFAULT_TYPE" route="N2S" depart="483" color="1,0,0"/>
    <vehicle id="up_250" type="SUMO_DEFAULT_TYPE" route="S2N" depart="483" color="1,0,0"/>
    <vehicle id="leftLT_251" type="SUMO_DEFAULT_TYPE" route="N2E" depart="483" />
    <vehicle id="right_252" type="SUMO_DEFAULT_TYPE" route="W2E" depart="488" />
    <vehicle id="down_253" type="SUMO_DEFAULT_TYPE" route="N2S" depart="488" color="1,0,0"/>
    <vehicle id="right_254" type="SUMO_DEFAULT_TYPE" route="W2E" depart="489" />
    <vehicle id="down_255" type="SUMO_DEFAULT_TYPE" route="N2S" depart="492" color="1,0,0"/>
    <vehicle id="left_256" type="SUMO_DEFAULT_TYPE" route="E2W" depart="494" />
    <vehicle id="down_257" type="SUMO_DEFAULT_TYPE" route="N2S" depart="494" color="1,0,0"/>
    <vehicle id="right_258" type="SUMO_DEFAULT_TYPE" route="W2E" depart="495" />
    <vehicle id="downLT_259" type="SUMO_DEFAULT_TYPE" route="E2S" depart="495" color="1,0,0"/>
    <vehicle id="down_260" type="SUMO_DEFAULT_TYPE" route="N2S" depart="496" color="1,0,0"/>
    <vehicle id="down_261" type="SUMO_DEFAULT_TYPE" route="N2S" depart="499" color="1,0,0"/>
    <vehicle id="down_262" type="SUMO_DEFAULT_TYPE" route="N2S" depart="501" color="1,0,0"/>
    <vehicle id="left_263" type="SUMO_DEFAULT_TYPE" route="E2W" depart="504" />
    <vehicle id="upLT_264" type="SUMO_DEFAULT_TYPE" route="S2W" depart="508" color="1,0,0"/>
    <vehicle id="right_265" type="SUMO_DEFAULT_TYPE" route="W2E" depart="509" />
    <vehicle id="up_266" type="SUMO_DEFAULT_TYPE" route="S2N" depart="512" color="1,0,0"/>
    <vehicle id="leftLT_267" type="SUMO_DEFAULT_TYPE" route="N2E" depart="512" />
    <vehicle id="downLT_268" type="SUMO_DEFAULT_TYPE" route="E2S" depart="517" color="1,0,0"/>
    <vehicle id="right_269" type="SUMO_DEFAULT_TYPE" route="W2E" depart="518" />
    <vehicle id="right_270" type="SUMO_DEFAULT_TYPE" route="W2E" depart="519" />
    <vehicle id="up_271" type="SUMO_DEFAULT_TYPE" route="S2N" depart="519" color="1,0,0"/>
    <vehicle id="right_272" type="SUMO_DEFAULT_TYPE" route="W2E" depart="522" />
    <vehicle id="right_273" type="SUMO_DEFAULT_TYPE" route="W2E" depart="526" />
    <vehicle id="down_274" type="SUMO_DEFAULT_TYPE" route="N2S" depart="531" color="1,0,0"/>
    <vehicle id="rightLT_275" type="SUMO_DEFAULT_TYPE" route="W2N" depart="532" />
    <vehicle id="up_276" type="SUMO_DEFAULT_TYPE" route="S2N" depart="537" color="1,0,0"/>
    <vehicle id="right_277" type="SUMO_DEFAULT_TYPE" route="W2E" depart="538" />
    <vehicle id="down_278" type="SUMO_DEFAULT_TYPE" route="N2S" depart="538" color="1,0,0"/>
    <vehicle id="up_279" type="SUMO_DEFAULT_TYPE" route="S2N" depart="538" color="1,0,0"/>
    <vehicle id="downLT_280" type="SUMO_DEFAULT_TYPE" route="E2S" depart="538" color="1,0,0"/>
    <vehicle id="left_281" type="SUMO_DEFAULT_TYPE" route="E2W" depart="539" />
    <vehicle id="rightLT_282" type="SUMO_DEFAULT_TYPE" route="W2N" depart="540" />
    <vehicle id="downLT_283" type="SUMO_DEFAULT_TYPE" route="E2S" depart="543" color="1,0,0"/>
    <vehicle id="up_284" type="SUMO_DEFAULT_TYPE" route="S2N" depart="544" color="1,0,0"/>
    <vehicle id="upLT_285" type="SUMO_DEFAULT_TYPE" route="S2W" depart="544" color="1,0,0"/>
    <vehicle id="up_286" type="SUMO_DEFAULT_TYPE" route="S2N" depart="545" color="1,0,0"/>
    <vehicle id="upLT_287" type="SUMO_DEFAULT_TYPE" route="S2W" depart="548" color="1,0,0"/>
    <vehicle id="right_288" type="SUMO_DEFAULT_TYPE" route="W2E" depart="549" />
    <vehicle id="up_289" type="SUMO_DEFAULT_TYPE" route="S2N" depart="551" color="1,0,0"/>
    <vehicle id="left_290" type="SUMO_DEFAULT_TYPE" route="E2W" depart="553" />
    <vehicle id="up_291" type="SUMO_DEFAULT_TYPE" route="S2N" depart="554" color="1,0,0"/>
    <vehicle id="up_292" type="SUMO_DEFAULT_TYPE" route="S2N" depart="556" color="1,0,0"/>
    <vehicle id="left_293" type="SUMO_DEFAULT_TYPE" route="E2W" depart="557" />
    <vehicle id="up_294" type="SUMO_DEFAULT_TYPE" route="S2N" depart="557" color="1,0,0"/>
    <vehicle id="right_295" type="SUMO_DEFAULT_TYPE" route="W2E" depart="558" />
    <vehicle id="left_296" type="SUMO_DEFAULT_TYPE" route="E2W" depart="562" />
    <vehicle id="leftLT_297" type="SUMO_DEFAULT_TYPE" route="N2E" depart="562" />
    <vehicle id="up_298" type="SUMO_DEFAULT_TYPE" route="S2N" depart="565" color="1,0,0"/>
    <vehicle id="left_299" type="SUMO_DEFAULT_TYPE" route="E2W" depart="567" />
    <vehicle id="up_300" type="SUMO_DEFAULT_TYPE" route="S2N" depart="567" color="1,0,0"/>
    <vehicle id="up_301" type="SUMO_DEFAULT_TYPE" route="S2N" depart="568" color="1,0,0"/>
    <vehicle id="right_302" type="SUMO_DEFAULT_TYPE" route="W2E" depart="569" />
    <vehicle id="down_303" type="SUMO_DEFAULT_TYPE" route="N2S" depart="570" color="1,0,0"/>
    <vehicle id="left_304" type="SUMO_DEFAULT_TYPE" route="E2W" depart="575" />
    <vehicle id="left_305" type="SUMO_DEFAULT_TYPE" route="E2W" depart="576" />
    <vehicle id="right_306" type="SUMO_DEFAULT_TYPE" route="W2E" depart="577" />
    <vehicle id="right_307" type="SUMO_DEFAULT_TYPE" route="W2E" depart="579" />
    <vehicle id="down_308" type="SUMO_DEFAULT_TYPE" route="N2S" depart="580" color="1,0,0"/>
    <vehicle id="up_309" type="SUMO_DEFAULT_TYPE" route="S2N" depart="581" color="1,0,0"/>
    <vehicle id="left_310" type="SUMO_DEFAULT_TYPE" route="E2W" depart="583" />
    <vehicle id="left_311" type="SUMO_DEFAULT_TYPE" route="E2W" depart="585" />
    <vehicle id="upLT_312" type="SUMO_DEFAULT_TYPE" route="S2W" depart="585" color="1,0,0"/>
    <vehicle id="down_313" type="SUMO_DEFAULT_TYPE" route="N2S" depart="588" color="1,0,0"/>
    <vehicle id="downLT_314" type="SUMO_DEFAULT_TYPE" route="E2S" depart="588" color="1,0,0"/>
    <vehicle id="right_315" type="SUMO_DEFAULT_TYPE" route="W2E" depart="590" />
    <vehicle id="up_316" type="SUMO_DEFAULT_TYPE" route="S2N" depart="590" color="1,0,0"/>
    <vehicle id="right_317" type="SUMO_DEFAULT_TYPE" route="W2E" depart="591" />
    <vehicle id="down_318" type="SUMO_DEFAULT_TYPE" route="N2S" depart="591" color="1,0,0"/>
    <vehicle id="right_319" type="SUMO_DEFAULT_TYPE" route="W2E" depart="592" />
    <vehicle id="downLT_320" type="SUMO_DEFAULT_TYPE" route="E2S" depart="593" color="1,0,0"/>
    <vehicle id="upLT_321" type="SUMO_DEFAULT_TYPE" route="S2W" depart="595" color="1,0,0"/>
    <vehicle id="right_322" type="SUMO_DEFAULT_TYPE" route="W2E" depart="602" />
    <vehicle id="rightLT_323" type="SUMO_DEFAULT_TYPE" route="W2N" depart="604" />
    <vehicle id="downLT_324" type="SUMO_DEFAULT_TYPE" route="E2S" depart="604" color="1,0,0"/>
    <vehicle id="down_325" type="SUMO_DEFAULT_TYPE" route="N2S" depart="608" color="1,0,0"/>
    <vehicle id="down_326" type="SUMO_DEFAULT_TYPE" route="N2S" depart="609" color="1,0,0"/>
    <vehicle id="down_327" type="SUMO_DEFAULT_TYPE" route="N2S" depart="610" color="1,0,0"/>
    <vehicle id="left_328" type="SUMO_DEFAULT_TYPE" route="E2W" depart="617" />
    <vehicle id="left_329" type="SUMO_DEFAULT_TYPE" route="E2W" depart="619" />
    <vehicle id="up_330" type="SUMO_DEFAULT_TYPE" route="S2N" depart="621" color="1,0,0"/>
    <vehicle id="down_331" type="SUMO_DEFAULT_TYPE" route="N2S" depart="623" color="1,0,0"/>
    <vehicle id="left_332" type="SUMO_DEFAULT_TYPE" route="E2W" depart="626" />
    <vehicle id="down_333" type="SUMO_DEFAULT_TYPE" route="N2S" depart="626" color="1,0,0"/>
    <vehicle id="rightLT_334" type="SUMO_DEFAULT_TYPE" route="W2N" depart="627" />
    <vehicle id="up_335" type="SUMO_DEFAULT_TYPE" route="S2N" depart="628" color="1,0,0"/>
    <vehicle id="right_336" type="SUMO_DEFAULT_TYPE" route="W2E" depart="629" />
    <vehicle id="rightLT_337" type="SUMO_DEFAULT_TYPE" route="W2N" depart="632" />
    <vehicle id="upLT_338" type="SUMO_DEFAULT_TYPE" route="S2W" depart="633" color="1,0,0"/>
    <vehicle id="rightLT_339" type="SUMO_DEFAULT_TYPE" route="W2N" depart="635" />
    <vehicle id="downLT_340" type="SUMO_DEFAULT_TYPE" route="E2S" depart="637" color="1,0,0"/>