<routes>
        <vType id="SUMO_DEFAULT_TYPE" accel="0.8" decel="4.5" sigma="0" length="5" minGap="2" maxSpeed="70"/>

        <route id="W2E" edges="51o 1i 2o 52i" />
        <route id="E2W" edges="52o 2i 1o 51i" />
        <route id="N2S" edges="54o 4i 3o 53i" />
        <route id="S2N" edges="53o 3i 4o 54i" />

        <route id="W2N" edges="51o 1i 4o 54i" />
        <route id="N2E" edges="54o 4i 2o 52i" />
        <route id="E2S" edges="52o 2i 3o 53i" />
        <route id="S2W" edges="53o 3i 1o 51i" />

        <route id="W2S" edges="51o 1i 3o 53i" />
        <route id="S2E" edges="53o 3i 2o 52i" />
        <route id="E2N" edges="52o 2i 4o 54i" />
        <route id="N2W" edges="54o 4i 1o 51i" />


    <vehicle id="down_0" type="SUMO_DEFAULT_TYPE" route="N2S" depart="0"/>
    <vehicle id="right_1" type="SUMO_DEFAULT_TYPE" route="W2E" depart="1"/>
    <vehicle id="down_2" type="SUMO_DEFAULT_TYPE" route="N2S" depart="1"/>
    <vehicle id="downLT_3" type="SUMO_DEFAULT_TYPE" route="E2S" depart="5" color="1,0,0"/>
    <vehicle id="right_4" type="SUMO_DEFAULT_TYPE" route="W2E" depart="6"/>
    <vehicle id="up_5" type="SUMO_DEFAULT_TYPE" route="S2N" depart="7"/>
    <vehicle id="left_6" type="SUMO_DEFAULT_TYPE" route="E2W" depart="9"/>
    <vehicle id="down_7" type="SUMO_DEFAULT_TYPE" route="N2S" depart="9"/>
    <vehicle id="left_8" type="SUMO_DEFAULT_TYPE" route="E2W" depart="11"/>
    <vehicle id="right_9" type="SUMO_DEFAULT_TYPE" route="W2E" depart="12"/>
    <vehicle id="rightLT_10" type="SUMO_DEFAULT_TYPE" route="W2N" depart="12" color="1,0,0"/>
    <vehicle id="downLT_11" type="SUMO_DEFAULT_TYPE" route="E2S" depart="12" color="1,0,0"/>
    <vehicle id="right_12" type="SUMO_DEFAULT_TYPE" route="W2E" depart="14"/>
    <vehicle id="left_13" type="SUMO_DEFAULT_TYPE" route="E2W" depart="15"/>
    <vehicle id="upLT_14" type="SUMO_DEFAULT_TYPE" route="S2W" depart="16" color="1,0,0"/>
    <vehicle id="right_15" type="SUMO_DEFAULT_TYPE" route="W2E" depart="17"/>
    <vehicle id="up_16" type="SUMO_DEFAULT_TYPE" route="S2N" depart="17"/>
    <vehicle id="left_17" type="SUMO_DEFAULT_TYPE" route="E2W" depart="18"/>
    <vehicle id="up_18" type="SUMO_DEFAULT_TYPE" route="S2N" depart="18"/>
    <vehicle id="downLT_19" type="SUMO_DEFAULT_TYPE" route="E2S" depart="18" color="1,0,0"/>
    <vehicle id="up_20" type="SUMO_DEFAULT_TYPE" route="S2N" depart="19"/>
    <vehicle id="up_21" type="SUMO_DEFAULT_TYPE" route="S2N" depart="20"/>
    <vehicle id="rightLT_22" type="SUMO_DEFAULT_TYPE" route="W2N" depart="23" color="1,0,0"/>
    <vehicle id="downLT_23" type="SUMO_DEFAULT_TYPE" route="E2S" depart="25" color="1,0,0"/>
    <vehicle id="upLT_24" type="SUMO_DEFAULT_TYPE" route="S2W" depart="26" color="1,0,0"/>
    <vehicle id="down_25" type="SUMO_DEFAULT_TYPE" route="N2S" depart="28"/>
    <vehicle id="right_26" type="SUMO_DEFAULT_TYPE" route="W2E" depart="31"/>
    <vehicle id="right_27" type="SUMO_DEFAULT_TYPE" route="W2E" depart="32"/>
    <vehicle id="right_28" type="SUMO_DEFAULT_TYPE" route="W2E" depart="34"/>
    <vehicle id="leftLT_29" type="SUMO_DEFAULT_TYPE" route="N2E" depart="34" color="1,0,0"/>
    <vehicle id="left_30" type="SUMO_DEFAULT_TYPE" route="E2W" depart="35"/>
    <vehicle id="down_31" type="SUMO_DEFAULT_TYPE" route="N2S" depart="36"/>
    <vehicle id="right_32" type="SUMO_DEFAULT_TYPE" route="W2E" depart="39"/>
    <vehicle id="left_33" type="SUMO_DEFAULT_TYPE" route="E2W" depart="41"/>
    <vehicle id="left_34" type="SUMO_DEFAULT_TYPE" route="E2W" depart="42"/>
    <vehicle id="up_35" type="SUMO_DEFAULT_TYPE" route="S2N" depart="42"/>
    <vehicle id="down_36" type="SUMO_DEFAULT_TYPE" route="N2S" depart="43"/>
    <vehicle id="right_37" type="SUMO_DEFAULT_TYPE" route="W2E" depart="44"/>
    <vehicle id="left_38" type="SUMO_DEFAULT_TYPE" route="E2W" depart="44"/>
    <vehicle id="up_39" type="SUMO_DEFAULT_TYPE" route="S2N" depart="44"/>
    <vehicle id="right_40" type="SUMO_DEFAULT_TYPE" route="W2E" depart="46"/>
    <vehicle id="rightLT_41" type="SUMO_DEFAULT_TYPE" route="W2N" depart="46" color="1,0,0"/>
    <vehicle id="left_42" type="SUMO_DEFAULT_TYPE" route="E2W" depart="49"/>
    <vehicle id="down_43" type="SUMO_DEFAULT_TYPE" route="N2S" depart="49"/>
    <vehicle id="leftLT_44" type="SUMO_DEFAULT_TYPE" route="N2E" depart="49" color="1,0,0"/>
    <vehicle id="right_45" type="SUMO_DEFAULT_TYPE" route="W2E" depart="50"/>
    <vehicle id="rightLT_46" type="SUMO_DEFAULT_TYPE" route="W2N" depart="51" color="1,0,0"/>
    <vehicle id="upLT_47" type="SUMO_DEFAULT_TYPE" route="S2W" depart="51" color="1,0,0"/>
    <vehicle id="left_48" type="SUMO_DEFAULT_TYPE" route="E2W" depart="55"/>
    <vehicle id="up_49" type="SUMO_DEFAULT_TYPE" route="S2N" depart="55"/>
    <vehicle id="downLT_50" type="SUMO_DEFAULT_TYPE" route="E2S" depart="55" color="1,0,0"/>
    <vehicle id="upLT_51" type="SUMO_DEFAULT_TYPE" route="S2W" depart="55" color="1,0,0"/>
    <vehicle id="up_52" type="SUMO_DEFAULT_TYPE" route="S2N" depart="57"/>
    <vehicle id="downLT_53" type="SUMO_DEFAULT_TYPE" route="E2S" depart="57" color="1,0,0"/>
    <vehicle id="left_54" type="SUMO_DEFAULT_TYPE" route="E2W" depart="59"/>
    <vehicle id="downLT_55" type="SUMO_DEFAULT_TYPE" route="E2S" depart="59" color="1,0,0"/>
    <vehicle id="left_56" type="SUMO_DEFAULT_TYPE" route="E2W" depart="60"/>
    <vehicle id="left_57" type="SUMO_DEFAULT_TYPE" route="E2W" depart="61"/>
    <vehicle id="down_58" type="SUMO_DEFAULT_TYPE" route="N2S" depart="63"/>
    <vehicle id="down_59" type="SUMO_DEFAULT_TYPE" route="N2S" depart="64"/>
    <vehicle id="up_60" type="SUMO_DEFAULT_TYPE" route="S2N" depart="65"/>
    <vehicle id="up_61" type="SUMO_DEFAULT_TYPE" route="S2N" depart="68"/>
    <vehicle id="leftLT_62" type="SUMO_DEFAULT_TYPE" route="N2E" depart="68" color="1,0,0"/>
    <vehicle id="downLT_63" type="SUMO_DEFAULT_TYPE" route="E2S" depart="68" color="1,0,0"/>
    <vehicle id="left_64" type="SUMO_DEFAULT_TYPE" route="E2W" depart="69"/>
    <vehicle id="left_65" type="SUMO_DEFAULT_TYPE" route="E2W" depart="72"/>
    <vehicle id="downLT_66" type="SUMO_DEFAULT_TYPE" route="E2S" depart="72" color="1,0,0"/>
    <vehicle id="right_67" type="SUMO_DEFAULT_TYPE" route="W2E" depart="73"/>
    <vehicle id="down_68" type="SUMO_DEFAULT_TYPE" route="N2S" depart="73"/>
    <vehicle id="down_69" type="SUMO_DEFAULT_TYPE" route="N2S" depart="74"/>
    <vehicle id="left_70" type="SUMO_DEFAULT_TYPE" route="E2W" depart="76"/>
    <vehicle id="down_71" type="SUMO_DEFAULT_TYPE" route="N2S" depart="77"/>
    <vehicle id="down_72" type="SUMO_DEFAULT_TYPE" route="N2S" depart="78"/>
    <vehicle id="down_73" type="SUMO_DEFAULT_TYPE" route="N2S" depart="82"/>
    <vehicle id="rightLT_74" type="SUMO_DEFAULT_TYPE" route="W2N" depart="82" color="1,0,0"/>
    <vehicle id="downLT_75" type="SUMO_DEFAULT_TYPE" route="E2S" depart="84" color="1,0,0"/>
    <vehicle id="down_76" type="SUMO_DEFAULT_TYPE" route="N2S" depart="86"/>
    <vehicle id="down_77" type="SUMO_DEFAULT_TYPE" route="N2S" depart="88"/>
    <vehicle id="up_78" type="SUMO_DEFAULT_TYPE" route="S2N" depart="90"/>
    <vehicle id="left_79" type="SUMO_DEFAULT_TYPE" route="E2W" depart="91"/>
    <vehicle id="down_80" type="SUMO_DEFAULT_TYPE" route="N2S" depart="91"/>
    <vehicle id="right_81" type="SUMO_DEFAULT_TYPE" route="W2E" depart="92"/>
    <vehicle id="up_82" type="SUMO_DEFAULT_TYPE" route="S2N" depart="93"/>
    <vehicle id="rightLT_83" type="SUMO_DEFAULT_TYPE" route="W2N" depart="94" color="1,0,0"/>
    <vehicle id="down_84" type="SUMO_DEFAULT_TYPE" route="N2S" depart="97"/>
    <vehicle id="down_85" type="SUMO_DEFAULT_TYPE" route="N2S" depart="98"/>
    <vehicle id="upLT_86" type="SUMO_DEFAULT_TYPE" route="S2W" depart="98" color="1,0,0"/>
    <vehicle id="down_87" type="SUMO_DEFAULT_TYPE" route="N2S" depart="100"/>
    <vehicle id="left_88" type="SUMO_DEFAULT_TYPE" route="E2W" depart="101"/>
    <vehicle id="down_89" type="SUMO_DEFAULT_TYPE" route="N2S" depart="101"/>
    <vehicle id="leftLT_90" type="SUMO_DEFAULT_TYPE" route="N2E" depart="101" color="1,0,0"/>
    <vehicle id="downLT_91" type="SUMO_DEFAULT_TYPE" route="E2S" depart="101" color="1,0,0"/>
    <vehicle id="up_92" type="SUMO_DEFAULT_TYPE" route="S2N" depart="104"/>
    <vehicle id="left_93" type="SUMO_DEFAULT_TYPE" route="E2W" depart="105"/>
    <vehicle id="down_94" type="SUMO_DEFAULT_TYPE" route="N2S" depart="105"/>
    <vehicle id="down_95" type="SUMO_DEFAULT_TYPE" route="N2S" depart="106"/>
    <vehicle id="right_96" type="SUMO_DEFAULT_TYPE" route="W2E" depart="107"/>
    <vehicle id="up_97" type="SUMO_DEFAULT_TYPE" route="S2N" depart="107"/>
    <vehicle id="downLT_98" type="SUMO_DEFAULT_TYPE" route="E2S" depart="107" color="1,0,0"/>
    <vehicle id="left_99" type="SUMO_DEFAULT_TYPE" route="E2W" depart="108"/>
    <vehicle id="down_100" type="SUMO_DEFAULT_TYPE" route="N2S" depart="108"/>
    <vehicle id="left_101" type="SUMO_DEFAULT_TYPE" route="E2W" depart="113"/>
    <vehicle id="left_102" type="SUMO_DEFAULT_TYPE" route="E2W" depart="115"/>
    <vehicle id="down_103" type="SUMO_DEFAULT_TYPE" route="N2S" depart="115"/>
    <vehicle id="right_104" type="SUMO_DEFAULT_TYPE" route="W2E" depart="116"/>
    <vehicle id="left_105" type="SUMO_DEFAULT_TYPE" route="E2W" depart="116"/>
    <vehicle id="down_106" type="SUMO_DEFAULT_TYPE" route="N2S" depart="116"/>
    <vehicle id="downLT_107" type="SUMO_DEFAULT_TYPE" route="E2S" depart="119" color="1,0,0"/>
    <vehicle id="down_108" type="SUMO_DEFAULT_TYPE" route="N2S" depart="120"/>
    <vehicle id="up_109" type="SUMO_DEFAULT_TYPE" route="S2N" depart="120"/>
    <vehicle id="up_110" type="SUMO_DEFAULT_TYPE" route="S2N" depart="121"/>
    <vehicle id="left_111" type="SUMO_DEFAULT_TYPE" route="E2W" depart="122"/>
    <vehicle id="downLT_112" type="SUMO_DEFAULT_TYPE" route="E2S" depart="122" color="1,0,0"/>
    <vehicle id="left_113" type="SUMO_DEFAULT_TYPE" route="E2W" depart="124"/>
    <vehicle id="right_114" type="SUMO_DEFAULT_TYPE" route="W2E" depart="126"/>
    <vehicle id="right_115" type="SUMO_DEFAULT_TYPE" route="W2E" depart="127"/>
    <vehicle id="down_116" type="SUMO_DEFAULT_TYPE" route="N2S" depart="127"/>
    <vehicle id="right_117" type="SUMO_DEFAULT_TYPE" route="W2E" depart="129"/>
    <vehicle id="up_118" type="SUMO_DEFAULT_TYPE" route="S2N" depart="129"/>
    <vehicle id="right_119" type="SUMO_DEFAULT_TYPE" route="W2E" depart="130"/>
    <vehicle id="left_120" type="SUMO_DEFAULT_TYPE" route="E2W" depart="130"/>
    <vehicle id="up_121" type="SUMO_DEFAULT_TYPE" route="S2N" depart="130"/>
    <vehicle id="right_122" type="SUMO_DEFAULT_TYPE" route="W2E" depart="131"/>
    <vehicle id="left_123" type="SUMO_DEFAULT_TYPE" route="E2W" depart="131"/>
    <vehicle id="down_124" type="SUMO_DEFAULT_TYPE" route="N2S" depart="132"/>
    <vehicle id="down_125" type="SUMO_DEFAULT_TYPE" route="N2S" depart="135"/>
    <vehicle id="left_126" type="SUMO_DEFAULT_TYPE" route="E2W" depart="138"/>
    <vehicle id="left_127" type="SUMO_DEFAULT_TYPE" route="E2W" depart="140"/>
    <vehicle id="right_128" type="SUMO_DEFAULT_TYPE" route="W2E" depart="141"/>
    <vehicle id="down_129" type="SUMO_DEFAULT_TYPE" route="N2S" depart="142"/>
    <vehicle id="down_130" type="SUMO_DEFAULT_TYPE" route="N2S" depart="143"/>
    <vehicle id="up_131" type="SUMO_DEFAULT_TYPE" route="S2N" depart="143"/>
    <vehicle id="right_132" type="SUMO_DEFAULT_TYPE" route="W2E" depart="145"/>
    <vehicle id="left_133" type="SUMO_DEFAULT_TYPE" route="E2W" depart="145"/>
    <vehicle id="up_134" type="SUMO_DEFAULT_TYPE" route="S2N" depart="148"/>
    <vehicle id="right_135" type="SUMO_DEFAULT_TYPE" route="W2E" depart="152"/>
    <vehicle id="up_136" type="SUMO_DEFAULT_TYPE" route="S2N" depart="153"/>
    <vehicle id="downLT_137" type="SUMO_DEFAULT_TYPE" route="E2S" depart="153" color="1,0,0"/>
    <vehicle id="right_138" type="SUMO_DEFAULT_TYPE" route="W2E" depart="154"/>
    <vehicle id="left_139" type="SUMO_DEFAULT_TYPE" route="E2W" depart="154"/>
    <vehicle id="right_140" type="SUMO_DEFAULT_TYPE" route="W2E" depart="155"/>
    <vehicle id="down_141" type="SUMO_DEFAULT_TYPE" route="N2S" depart="155"/>
    <vehicle id="down_142" type="SUMO_DEFAULT_TYPE" route="N2S" depart="156"/>
    <vehicle id="up_143" type="SUMO_DEFAULT_TYPE" route="S2N" depart="156"/>
    <vehicle id="downLT_144" type="SUMO_DEFAULT_TYPE" route="E2S" depart="156" color="1,0,0"/>
    <vehicle id="down_145" type="SUMO_DEFAULT_TYPE" route="N2S" depart="159"/>
    <vehicle id="right_146" type="SUMO_DEFAULT_TYPE" route="W2E" depart="160"/>
    <vehicle id="down_147" type="SUMO_DEFAULT_TYPE" route="N2S" depart="160"/>
    <vehicle id="up_148" type="SUMO_DEFAULT_TYPE" route="S2N" depart="160"/>
    <vehicle id="upLT_149" type="SUMO_DEFAULT_TYPE" route="S2W" depart="160" color="1,0,0"/>
    <vehicle id="rightLT_150" type="SUMO_DEFAULT_TYPE" route="W2N" depart="161" color="1,0,0"/>
    <vehicle id="up_151" type="SUMO_DEFAULT_TYPE" route="S2N" depart="166"/>
    <vehicle id="left_152" type="SUMO_DEFAULT_TYPE" route="E2W" depart="167"/>
    <vehicle id="down_153" type="SUMO_DEFAULT_TYPE" route="N2S" depart="167"/>
    <vehicle id="up_154" type="SUMO_DEFAULT_TYPE" route="S2N" depart="167"/>
    <vehicle id="leftLT_155" type="SUMO_DEFAULT_TYPE" route="N2E" depart="167" color="1,0,0"/>
    <vehicle id="downLT_156" type="SUMO_DEFAULT_TYPE" route="E2S" depart="167" color="1,0,0"/>
    <vehicle id="leftLT_157" type="SUMO_DEFAULT_TYPE" route="N2E" depart="168" color="1,0,0"/>
    <vehicle id="right_158" type="SUMO_DEFAULT_TYPE" route="W2E" depart="170"/>
    <vehicle id="down_159" type="SUMO_DEFAULT_TYPE" route="N2S" depart="171"/>
    <vehicle id="up_160" type="SUMO_DEFAULT_TYPE" route="S2N" depart="173"/>
    <vehicle id="left_161" type="SUMO_DEFAULT_TYPE" route="E2W" depart="175"/>
    <vehicle id="downLT_162" type="SUMO_DEFAULT_TYPE" route="E2S" depart="175" color="1,0,0"/>
    <vehicle id="down_163" type="SUMO_DEFAULT_TYPE" route="N2S" depart="176"/>
    <vehicle id="rightLT_164" type="SUMO_DEFAULT_TYPE" route="W2N" depart="176" color="1,0,0"/>
    <vehicle id="down_165" type="SUMO_DEFAULT_TYPE" route="N2S" depart="177"/>
    <vehicle id="down_166" type="SUMO_DEFAULT_TYPE" route="N2S" depart="179"/>
    <vehicle id="right_167" type="SUMO_DEFAULT_TYPE" route="W2E" depart="180"/>
    <vehicle id="up_168" type="SUMO_DEFAULT_TYPE" route="S2N" depart="180"/>
    <vehicle id="left_169" type="SUMO_DEFAULT_TYPE" route="E2W" depart="182"/>
    <vehicle id="right_170" type="SUMO_DEFAULT_TYPE" route="W2E" depart="183"/>
    <vehicle id="right_171" type="SUMO_DEFAULT_TYPE" route="W2E" depart="184"/>
    <vehicle id="left_172" type="SUMO_DEFAULT_TYPE" route="E2W" depart="184"/>
    <vehicle id="up_173" type="SUMO_DEFAULT_TYPE" route="S2N" depart="184"/>
    <vehicle id="up_174" type="SUMO_DEFAULT_TYPE" route="S2N" depart="185"/>
    <vehicle id="rightLT_175" type="SUMO_DEFAULT_TYPE" route="W2N" depart="185" color="1,0,0"/>
    <vehicle id="leftLT_176" type="SUMO_DEFAULT_TYPE" route="N2E" depart="185" color="1,0,0"/>
    <vehicle id="down_177" type="SUMO_DEFAULT_TYPE" route="N2S" depart="186"/>
    <vehicle id="up_178" type="SUMO_DEFAULT_TYPE" route="S2N" depart="187"/>
    <vehicle id="up_179" type="SUMO_DEFAULT_TYPE" route="S2N" depart="188"/>
    <vehicle id="rightLT_180" type="SUMO_DEFAULT_TYPE" route="W2N" depart="189" color="1,0,0"/>
    <vehicle id="rightLT_181" type="SUMO_DEFAULT_TYPE" route="W2N" depart="190" color="1,0,0"/>
    <vehicle id="right_182" type="SUMO_DEFAULT_TYPE" route="W2E" depart="191"/>
    <vehicle id="rightLT_183" type="SUMO_DEFAULT_TYPE" route="W2N" depart="191" color="1,0,0"/>
    <vehicle id="rightLT_184" type="SUMO_DEFAULT_TYPE" route="W2N" depart="194" color="1,0,0"/>
    <vehicle id="downLT_185" type="SUMO_DEFAULT_TYPE" route="E2S" depart="194" color="1,0,0"/>
    <vehicle id="left_186" type="SUMO_DEFAULT_TYPE" route="E2W" depart="197"/>
    <vehicle id="left_187" type="SUMO_DEFAULT_TYPE" route="E2W" depart="198"/>
    <vehicle id="up_188" type="SUMO_DEFAULT_TYPE" route="S2N" depart="198"/>
    <vehicle id="rightLT_189" type="SUMO_DEFAULT_TYPE" route="W2N" depart="198" color="1,0,0"/>
    <vehicle id="downLT_190" type="SUMO_DEFAULT_TYPE" route="E2S" depart="198" color="1,0,0"/>
    <vehicle id="right_191" type="SUMO_DEFAULT_TYPE" route="W2E" depart="199"/>
    <vehicle id="rightLT_192" type="SUMO_DEFAULT_TYPE" route="W2N" depart="200" color="1,0,0"/>
    <vehicle id="left_193" type="SUMO_DEFAULT_TYPE" route="E2W" depart="201"/>
    <vehicle id="down_194" type="SUMO_DEFAULT_TYPE" route="N2S" depart="203"/>
    <vehicle id="left_195" type="SUMO_DEFAULT_TYPE" route="E2W" depart="204"/>
    <vehicle id="rightLT_196" type="SUMO_DEFAULT_TYPE" route="W2N" depart="204" color="1,0,0"/>
    <vehicle id="downLT_197" type="SUMO_DEFAULT_TYPE" route="E2S" depart="204" color="1,0,0"/>
    <vehicle id="right_198" type="SUMO_DEFAULT_TYPE" route="W2E" depart="206"/>
    <vehicle id="down_199" type="SUMO_DEFAULT_TYPE" route="N2S" depart="206"/>
    <vehicle id="left_200" type="SUMO_DEFAULT_TYPE" route="E2W" depart="207"/>
    <vehicle id="down_201" type="SUMO_DEFAULT_TYPE" route="N2S" depart="207"/>
    <vehicle id="right_202" type="SUMO_DEFAULT_TYPE" route="W2E" depart="208"/>
    <vehicle id="downLT_203" type="SUMO_DEFAULT_TYPE" route="E2S" depart="210" color="1,0,0"/>
    <vehicle id="down_204" type="SUMO_DEFAULT_TYPE" route="N2S" depart="211"/>
    <vehicle id="downLT_205" type="SUMO_DEFAULT_TYPE" route="E2S" depart="211" color="1,0,0"/>
    <vehicle id="upLT_206" type="SUMO_DEFAULT_TYPE" route="S2W" depart="211" color="1,0,0"/>
    <vehicle id="rightLT_207" type="SUMO_DEFAULT_TYPE" route="W2N" depart="212" color="1,0,0"/>
    <vehicle id="right_208" type="SUMO_DEFAULT_TYPE" route="W2E" depart="214"/>
    <vehicle id="rightLT_209" type="SUMO_DEFAULT_TYPE" route="W2N" depart="214" color="1,0,0"/>
    <vehicle id="right_210" type="SUMO_DEFAULT_TYPE" route="W2E" depart="217"/>
    <vehicle id="down_211" type="SUMO_DEFAULT_TYPE" route="N2S" depart="218"/>
    <vehicle id="rightLT_212" type="SUMO_DEFAULT_TYPE" route="W2N" depart="218" color="1,0,0"/>
    <vehicle id="down_213" type="SUMO_DEFAULT_TYPE" route="N2S" depart="220"/>
    <vehicle id="left_214" type="SUMO_DEFAULT_TYPE" route="E2W" depart="221"/>
    <vehicle id="downLT_215" type="SUMO_DEFAULT_TYPE" route="E2S" depart="221" color="1,0,0"/>
    <vehicle id="upLT_216" type="SUMO_DEFAULT_TYPE" route="S2W" depart="221" color="1,0,0"/>
    <vehicle id="rightLT_217" type="SUMO_DEFAULT_TYPE" route="W2N" depart="222" color="1,0,0"/>
    <vehicle id="right_218" type="SUMO_DEFAULT_TYPE" route="W2E" depart="223"/>
    <vehicle id="left_219" type="SUMO_DEFAULT_TYPE" route="E2W" depart="227"/>
    <vehicle id="right_220" type="SUMO_DEFAULT_TYPE" route="W2E" depart="229"/>
    <vehicle id="up_221" type="SUMO_DEFAULT_TYPE" route="S2N" depart="230"/>
    <vehicle id="leftLT_222" type="SUMO_DEFAULT_TYPE" route="N2E" depart="230" color="1,0,0"/>
    <vehicle id="upLT_223" type="SUMO_DEFAULT_TYPE" route="S2W" depart="230" color="1,0,0"/>
    <vehicle id="down_224" type="SUMO_DEFAULT_TYPE" route="N2S" depart="231"/>
    <vehicle id="right_225" type="SUMO_DEFAULT_TYPE" route="W2E" depart="233"/>
    <vehicle id="right_226" type="SUMO_DEFAULT_TYPE" route="W2E" depart="235"/>
    <vehicle id="down_227" type="SUMO_DEFAULT_TYPE" route="N2S" depart="235"/>
    <vehicle id="downLT_228" type="SUMO_DEFAULT_TYPE" route="E2S" depart="235" color="1,0,0"/>
    <vehicle id="left_229" type="SUMO_DEFAULT_TYPE" route="E2W" depart="236"/>
    <vehicle id="up_230" type="SUMO_DEFAULT_TYPE" route="S2N" depart="236"/>
    <vehicle id="right_231" type="SUMO_DEFAULT_TYPE" route="W2E" depart="237"/>
    <vehicle id="rightLT_232" type="SUMO_DEFAULT_TYPE" route="W2N" depart="239" color="1,0,0"/>
    <vehicle id="rightLT_233" type="SUMO_DEFAULT_TYPE" route="W2N" depart="241" color="1,0,0"/>
    <vehicle id="downLT_234" type="SUMO_DEFAULT_TYPE" route="E2S" depart="243" color="1,0,0"/>
    <vehicle id="right_235" type="SUMO_DEFAULT_TYPE" route="W2E" depart="245"/>
    <vehicle id="up_236" type="SUMO_DEFAULT_TYPE" route="S2N" depart="245"/>
    <vehicle id="left_237" type="SUMO_DEFAULT_TYPE" route="E2W" depart="246"/>
    <vehicle id="rightLT_238" type="SUMO_DEFAULT_TYPE" route="W2N" depart="247" color="1,0,0"/>
    <vehicle id="right_239" type="SUMO_DEFAULT_TYPE" route="W2E" depart="248"/>
    <vehicle id="left_240" type="SUMO_DEFAULT_TYPE" route="E2W" depart="248"/>
    <vehicle id="left_241" type="SUMO_DEFAULT_TYPE" route="E2W" depart="250"/>
    <vehicle id="down_242" type="SUMO_DEFAULT_TYPE" route="N2S" depart="250"/>
    <vehicle id="right_243" type="SUMO_DEFAULT_TYPE" route="W2E" depart="251"/>
    <vehicle id="down_244" type="SUMO_DEFAULT_TYPE" route="N2S" depart="253"/>
    <vehicle id="up_245" type="SUMO_DEFAULT_TYPE" route="S2N" depart="253"/>
    <vehicle id="right_246" type="SUMO_DEFAULT_TYPE" route="W2E" depart="258"/>
    <vehicle id="down_247" type="SUMO_DEFAULT_TYPE" route="N2S" depart="258"/>
    <vehicle id="up_248" type="SUMO_DEFAULT_TYPE" route="S2N" depart="258"/>
    <vehicle id="right_249" type="SUMO_DEFAULT_TYPE" route="W2E" depart="259"/>
    <vehicle id="left_250" type="SUMO_DEFAULT_TYPE" route="E2W" depart="260"/>
    <vehicle id="down_251" type="SUMO_DEFAULT_TYPE" route="N2S" depart="260"/>
    <vehicle id="downLT_252" type="SUMO_DEFAULT_TYPE" route="E2S" depart="261" color="1,0,0"/>
    <vehicle id="left_253" type="SUMO_DEFAULT_TYPE" route="E2W" depart="262"/>
    <vehicle id="right_254" type="SUMO_DEFAULT_TYPE" route="W2E" depart="263"/>
    <vehicle id="left_255" type="SUMO_DEFAULT_TYPE" route="E2W" depart="264"/>
    <vehicle id="right_256" type="SUMO_DEFAULT_TYPE" route="W2E" depart="265"/>
    <vehicle id="right_257" type="SUMO_DEFAULT_TYPE" route="W2E" depart="268"/>
    <vehicle id="left_258" type="SUMO_DEFAULT_TYPE" route="E2W" depart="268"/>
    <vehicle id="left_259" type="SUMO_DEFAULT_TYPE" route="E2W" depart="269"/>
    <vehicle id="rightLT_260" type="SUMO_DEFAULT_TYPE" route="W2N" depart="269" color="1,0,0"/>
    <vehicle id="downLT_261" type="SUMO_DEFAULT_TYPE" route="E2S" depart="269" color="1,0,0"/>
    <vehicle id="rightLT_262" type="SUMO_DEFAULT_TYPE" route="W2N" depart="275" color="1,0,0"/>
    <vehicle id="right_263" type="SUMO_DEFAULT_TYPE" route="W2E" depart="276"/>
    <vehicle id="left_264" type="SUMO_DEFAULT_TYPE" route="E2W" depart="276"/>
    <vehicle id="leftLT_265" type="SUMO_DEFAULT_TYPE" route="N2E" depart="276" color="1,0,0"/>
    <vehicle id="right_266" type="SUMO_DEFAULT_TYPE" route="W2E" depart="277"/>
    <vehicle id="downLT_267" type="SUMO_DEFAULT_TYPE" route="E2S" depart="277" color="1,0,0"/>
    <vehicle id="down_268" type="SUMO_DEFAULT_TYPE" route="N2S" depart="280"/>
    <vehicle id="right_269" type="SUMO_DEFAULT_TYPE" route="W2E" depart="281"/>
    <vehicle id="downLT_270" type="SUMO_DEFAULT_TYPE" route="E2S" depart="281" color="1,0,0"/>
    <vehicle id="rightLT_271" type="SUMO_DEFAULT_TYPE" route="W2N" depart="282" color="1,0,0"/>
    <vehicle id="right_272" type="SUMO_DEFAULT_TYPE" route="W2E" depart="283"/>
    <vehicle id="downLT_273" type="SUMO_DEFAULT_TYPE" route="E2S" depart="283" color="1,0,0"/>
    <vehicle id="upLT_274" type="SUMO_DEFAULT_TYPE" route="S2W" depart="283" color="1,0,0"/>
    <vehicle id="rightLT_275" type="SUMO_DEFAULT_TYPE" route="W2N" depart="284" color="1,0,0"/>
    <vehicle id="left_276" type="SUMO_DEFAULT_TYPE" route="E2W" depart="285"/>
    <vehicle id="up_277" type="SUMO_DEFAULT_TYPE" route="S2N" depart="286"/>
    <vehicle id="down_278" type="SUMO_DEFAULT_TYPE" route="N2S" depart="288"/>
    <vehicle id="down_279" type="SUMO_DEFAULT_TYPE" route="N2S" depart="289"/>
    <vehicle id="right_280" type="SUMO_DEFAULT_TYPE" route="W2E" depart="290"/>
    <vehicle id="up_281" type="SUMO_DEFAULT_TYPE" route="S2N" depart="291"/>
    <vehicle id="rightLT_282" type="SUMO_DEFAULT_TYPE" route="W2N" depart="291" color="1,0,0"/>
    <vehicle id="up_283" type="SUMO_DEFAULT_TYPE" route="S2N" depart="292"/>
    <vehicle id="rightLT_284" type="SUMO_DEFAULT_TYPE" route="W2N" depart="293" color="1,0,0"/>
    <vehicle id="right_285" type="SUMO_DEFAULT_TYPE" route="W2E" depart="296"/>
    <vehicle id="down_286" type="SUMO_DEFAULT_TYPE" route="N2S" depart="296"/>
    <vehicle id="downLT_287" type="SUMO_DEFAULT_TYPE" route="E2S" depart="297" color="1,0,0"/>
    <vehicle id="up_288" type="SUMO_DEFAULT_TYPE" route="S2N" depart="298"/>
    <vehicle id="up_289" type="SUMO_DEFAULT_TYPE" route="S2N" depart="299"/>
    <vehicle id="up_290" type="SUMO_DEFAULT_TYPE" route="S2N" depart="301"/>
    <vehicle id="down_291" type="SUMO_DEFAULT_TYPE" route="N2S" depart="302"/>
    <vehicle id="leftLT_292" type="SUMO_DEFAULT_TYPE" route="N2E" depart="302" color="1,0,0"/>
    <vehicle id="upLT_293" type="SUMO_DEFAULT_TYPE" route="S2W" depart="303" color="1,0,0"/>
    <vehicle id="down_294" type="SUMO_DEFAULT_TYPE" route="N2S" depart="305"/>
    <vehicle id="up_295" type="SUMO_DEFAULT_TYPE" route="S2N" depart="305"/>
    <vehicle id="upLT_296" type="SUMO_DEFAULT_TYPE" route="S2W" depart="305" color="1,0,0"/>
    <vehicle id="left_297" type="SUMO_DEFAULT_TYPE" route="E2W" depart="307"/>
    <vehicle id="left_298" type="SUMO_DEFAULT_TYPE" route="E2W" depart="308"/>
    <vehicle id="right_299" type="SUMO_DEFAULT_TYPE" route="W2E" depart="311"/>
    <vehicle id="down_300" type="SUMO_DEFAULT_TYPE" route="N2S" depart="312"/>
    <vehicle id="downLT_301" type="SUMO_DEFAULT_TYPE" route="E2S" depart="312" color="1,0,0"/>
    <vehicle id="left_302" type="SUMO_DEFAULT_TYPE" route="E2W" depart="313"/>
    <vehicle id="rightLT_303" type="SUMO_DEFAULT_TYPE" route="W2N" depart="313" color="1,0,0"/>
    <vehicle id="rightLT_304" type="SUMO_DEFAULT_TYPE" route="W2N" depart="314" color="1,0,0"/>
    <vehicle id="downLT_305" type="SUMO_DEFAULT_TYPE" route="E2S" depart="316" color="1,0,0"/>
    <vehicle id="right_306" type="SUMO_DEFAULT_TYPE" route="W2E" depart="317"/>
    <vehicle id="up_307" type="SUMO_DEFAULT_TYPE" route="S2N" depart="317"/>
    <vehicle id="downLT_308" type="SUMO_DEFAULT_TYPE" route="E2S" depart="317" color="1,0,0"/>
    <vehicle id="right_309" type="SUMO_DEFAULT_TYPE" route="W2E" depart="318"/>
    <vehicle id="upLT_310" type="SUMO_DEFAULT_TYPE" route="S2W" depart="319" color="1,0,0"/>
    <vehicle id="downLT_311" type="SUMO_DEFAULT_TYPE" route="E2S" depart="321" color="1,0,0"/>
    <vehicle id="rightLT_312" type="SUMO_DEFAULT_TYPE" route="W2N" depart="322" color="1,0,0"/>
    <vehicle id="right_313" type="SUMO_DEFAULT_TYPE" route="W2E" depart="323"/>
    <vehicle id="right_314" type="SUMO_DEFAULT_TYPE" route="W2E" depart="324"/>
    <vehicle id="up_315" type="SUMO_DEFAULT_TYPE" route="S2N" depart="328"/>
    <vehicle id="upLT_316" type="SUMO_DEFAULT_TYPE" route="S2W" depart="329" color="1,0,0"/>
    <vehicle id="up_317" type="SUMO_DEFAULT_TYPE" route="S2N" depart="330"/>
    <vehicle id="right_318" type="SUMO_DEFAULT_TYPE" route="W2E" depart="331"/>
    <vehicle id="down_319" type="SUMO_DEFAULT_TYPE" route="N2S" depart="331"/>
    <vehicle id="left_320" type="SUMO_DEFAULT_TYPE" route="E2W" depart="332"/>
    <vehicle id="rightLT_321" type="SUMO_DEFAULT_TYPE" route="W2N" depart="332" color="1,0,0"/>
    <vehicle id="down_322" type="SUMO_DEFAULT_TYPE" route="N2S" depart="334"/>
    <vehicle id="up_323" type="SUMO_DEFAULT_TYPE" route="S2N" depart="334"/>
    <vehicle id="rightLT_324" type="SUMO_DEFAULT_TYPE" route="W2N" depart="335" color="1,0,0"/>
    <vehicle id="down_325" type="SUMO_DEFAULT_TYPE" route="N2S" depart="336"/>
    <vehicle id="left_326" type="SUMO_DEFAULT_TYPE" route="E2W" depart="338"/>
    <vehicle id="rightLT_327" type="SUMO_DEFAULT_TYPE" route="W2N" depart="338" color="1,0,0"/>
    <vehicle id="rightLT_328" type="SUMO_DEFAULT_TYPE" route="W2N" depart="339" color="1,0,0"/>
    <vehicle id="upLT_329" type="SUMO_DEFAULT_TYPE" route="S2W" depart="340" color="1,0,0"/>
    <vehicle id="up_330" type="SUMO_DEFAULT_TYPE" route="S2N" depart="341"/>
    <vehicle id="right_331" type="SUMO_DEFAULT_TYPE" route="W2E" depart="342"/>
    <vehicle id="left_332" type="SUMO_DEFAULT_TYPE" route="E2W" depart="342"/>
    <vehicle id="down_333" type="SUMO_DEFAULT_TYPE" route="N2S" depart="345"/>
    <vehicle id="downLT_334" type="SUMO_DEFAULT_TYPE" route="E2S" depart="345" color="1,0,0"/>
    <vehicle id="right_335" type="SUMO_DEFAULT_TYPE" route="W2E" depart="346"/>
    <vehicle id="up_336" type="SUMO_DEFAULT_TYPE" route="S2N" depart="346"/>
    <vehicle id="left_337" type="SUMO_DEFAULT_TYPE" route="E2W" depart="348"/>
    <vehicle id="right_338" type="SUMO_DEFAULT_TYPE" route="W2E" depart="350"/>
    <vehicle id="rightLT_339" type="SUMO_DEFAULT_TYPE" route="W2N" depart="354" color="1,0,0"/>
    <vehicle id="left_340" type="SUMO_DEFAULT_TYPE" route="E2W" depart="356"/>
    <vehicle id="upLT_341" type="SUMO_DEFAULT_TYPE" route="S2W" depart="358" color="1,0,0"/>
    <vehicle id="left_342" type="SUMO_DEFAULT_TYPE" route="E2W" depart="360"/>
    <vehicle id="rightLT_343" type="SUMO_DEFAULT_TYPE" route="W2N" depart="360" color="1,0,0"/>
    <vehicle id="left_344" type="SUMO_DEFAULT_TYPE" route="E2W" depart="361"/>
    <vehicle id="leftLT_345" type="SUMO_DEFAULT_TYPE" route="N2E" depart="361" color="1,0,0"/>
    <vehicle id="up_346" type="SUMO_DEFAULT_TYPE" route="S2N" depart="362"/>
    <vehicle id="rightLT_347" type="SUMO_DEFAULT_TYPE" route="W2N" depart="363" color="1,0,0"/>
    <vehicle id="up_348" type="SUMO_DEFAULT_TYPE" route="S2N" depart="365"/>
    <vehicle id="right_349" type="SUMO_DEFAULT_TYPE" route="W2E" depart="366"/>
    <vehicle id="right_350" type="SUMO_DEFAULT_TYPE" route="W2E" depart="370"/>
    <vehicle id="right_351" type="SUMO_DEFAULT_TYPE" route="W2E" depart="371"/>