<routes>
        <vType id="SUMO_DEFAULT_TYPE" accel="0.8" decel="4.5" sigma="0" length="5" minGap="2" maxSpeed="70"/>

        <route id="W2E" edges="51o 1i 2o 52i" />
        <route id="E2W" edges="52o 2i 1o 51i" />
        <route id="N2S" edges="54o 4i 3o 53i" />
        <route id="S2N" edges="53o 3i 4o 54i" />

        <route id="W2N" edges="51o 1i 4o 54i" />
        <route id="N2E" edges="54o 4i 2o 52i" />
        <route id="E2S" edges="52o 2i 3o 53i" />
        <route id="S2W" edges="53o 3i 1o 51i" />

        <route id="W2S" edges="51o 1i 3o 53i" />
        <route id="S2E" edges="53o 3i 2o 52i" />
        <route id="E2N" edges="52o 2i 4o 54i" />
        <route id="N2W" edges="54o 4i 1o 51i" />

        
    <vehicle id="left_0" type="SUMO_DEFAULT_TYPE" route="E2W" depart="0" />
    <vehicle id="left_1" type="SUMO_DEFAULT_TYPE" route="E2W" depart="1" />
    <vehicle id="rightLT_2" type="SUMO_DEFAULT_TYPE" route="W2N" depart="1" />
    <vehicle id="down_3" type="SUMO_DEFAULT_TYPE" route="N2S" depart="3" color="1,0,0"/>
    <vehicle id="up_4" type="SUMO_DEFAULT_TYPE" route="S2N" depart="3" color="1,0,0"/>
    <vehicle id="right_5" type="SUMO_DEFAULT_TYPE" route="W2E" depart="7"/>
    <vehicle id="right_6" type="SUMO_DEFAULT_TYPE" route="W2E" depart="11"/>
    <vehicle id="down_7" type="SUMO_DEFAULT_TYPE" route="N2S" depart="13" color="1,0,0"/>
    <vehicle id="left_8" type="SUMO_DEFAULT_TYPE" route="E2W" depart="14"/>
    <vehicle id="up_9" type="SUMO_DEFAULT_TYPE" route="S2N" depart="16" color="1,0,0"/>
    <vehicle id="left_10" type="SUMO_DEFAULT_TYPE" route="E2W" depart="18"/>
    <vehicle id="down_11" type="SUMO_DEFAULT_TYPE" route="N2S" depart="19" color="1,0,0"/>
    <vehicle id="right_12" type="SUMO_DEFAULT_TYPE" route="W2E" depart="20"/>
    <vehicle id="leftLT_13" type="SUMO_DEFAULT_TYPE" route="N2E" depart="20"/>
    <vehicle id="up_14" type="SUMO_DEFAULT_TYPE" route="S2N" depart="23" color="1,0,0"/>
    <vehicle id="rightLT_15" type="SUMO_DEFAULT_TYPE" route="W2N" depart="31"/>
    <vehicle id="right_16" type="SUMO_DEFAULT_TYPE" route="W2E" depart="32"/>
    <vehicle id="leftLT_17" type="SUMO_DEFAULT_TYPE" route="N2E" depart="33"/>
    <vehicle id="down_18" type="SUMO_DEFAULT_TYPE" route="N2S" depart="34" color="1,0,0"/>
    <vehicle id="down_19" type="SUMO_DEFAULT_TYPE" route="N2S" depart="36" color="1,0,0"/>
    <vehicle id="left_20" type="SUMO_DEFAULT_TYPE" route="E2W" depart="37"/>
    <vehicle id="left_21" type="SUMO_DEFAULT_TYPE" route="E2W" depart="39"/>
    <vehicle id="rightLT_22" type="SUMO_DEFAULT_TYPE" route="W2N" depart="40"/>
    <vehicle id="up_23" type="SUMO_DEFAULT_TYPE" route="S2N" depart="43" color="1,0,0"/>
    <vehicle id="left_24" type="SUMO_DEFAULT_TYPE" route="E2W" depart="44"/>
    <vehicle id="right_25" type="SUMO_DEFAULT_TYPE" route="W2E" depart="46"/>
    <vehicle id="upLT_26" type="SUMO_DEFAULT_TYPE" route="S2W" depart="46" color="1,0,0"/>
    <vehicle id="down_27" type="SUMO_DEFAULT_TYPE" route="N2S" depart="49" color="1,0,0"/>
    <vehicle id="up_28" type="SUMO_DEFAULT_TYPE" route="S2N" depart="52" color="1,0,0"/>
    <vehicle id="up_29" type="SUMO_DEFAULT_TYPE" route="S2N" depart="53" color="1,0,0"/>
    <vehicle id="left_30" type="SUMO_DEFAULT_TYPE" route="E2W" depart="58"/>
    <vehicle id="down_31" type="SUMO_DEFAULT_TYPE" route="N2S" depart="58" color="1,0,0"/>
    <vehicle id="left_32" type="SUMO_DEFAULT_TYPE" route="E2W" depart="60" />
    <vehicle id="left_33" type="SUMO_DEFAULT_TYPE" route="E2W" depart="62"/>
    <vehicle id="up_34" type="SUMO_DEFAULT_TYPE" route="S2N" depart="62" color="1,0,0"/>
    <vehicle id="right_35" type="SUMO_DEFAULT_TYPE" route="W2E" depart="63" />
    <vehicle id="rightLT_36" type="SUMO_DEFAULT_TYPE" route="W2N" depart="63"/>
    <vehicle id="downLT_37" type="SUMO_DEFAULT_TYPE" route="E2S" depart="64" color="1,0,0"/>
    <vehicle id="right_38" type="SUMO_DEFAULT_TYPE" route="W2E" depart="66"/>
    <vehicle id="down_39" type="SUMO_DEFAULT_TYPE" route="N2S" depart="66" color="1,0,0"/>
    <vehicle id="right_40" type="SUMO_DEFAULT_TYPE" route="W2E" depart="67"/>
    <vehicle id="rightLT_41" type="SUMO_DEFAULT_TYPE" route="W2N" depart="69"/>
    <vehicle id="right_42" type="SUMO_DEFAULT_TYPE" route="W2E" depart="75" />
    <vehicle id="leftLT_43" type="SUMO_DEFAULT_TYPE" route="N2E" depart="77"/>
    <vehicle id="down_44" type="SUMO_DEFAULT_TYPE" route="N2S" depart="78" color="1,0,0"/>
    <vehicle id="up_45" type="SUMO_DEFAULT_TYPE" route="S2N" depart="80" color="1,0,0"/>
    <vehicle id="down_46" type="SUMO_DEFAULT_TYPE" route="N2S" depart="81" color="1,0,0"/>
    <vehicle id="right_47" type="SUMO_DEFAULT_TYPE" route="W2E" depart="82"/>
    <vehicle id="up_48" type="SUMO_DEFAULT_TYPE" route="S2N" depart="83" color="1,0,0"/>
    <vehicle id="up_49" type="SUMO_DEFAULT_TYPE" route="S2N" depart="85" color="1,0,0"/>
    <vehicle id="rightLT_50" type="SUMO_DEFAULT_TYPE" route="W2N" depart="85"/>
    <vehicle id="up_51" type="SUMO_DEFAULT_TYPE" route="S2N" depart="89" color="1,0,0"/>
    <vehicle id="rightLT_52" type="SUMO_DEFAULT_TYPE" route="W2N" depart="89"/>
    <vehicle id="leftLT_53" type="SUMO_DEFAULT_TYPE" route="N2E" depart="91"/>
    <vehicle id="up_54" type="SUMO_DEFAULT_TYPE" route="S2N" depart="97" color="1,0,0"/>
    <vehicle id="left_55" type="SUMO_DEFAULT_TYPE" route="E2W" depart="102"/>
    <vehicle id="rightLT_56" type="SUMO_DEFAULT_TYPE" route="W2N" depart="106"/>
    <vehicle id="down_57" type="SUMO_DEFAULT_TYPE" route="N2S" depart="107" color="1,0,0"/>
    <vehicle id="right_58" type="SUMO_DEFAULT_TYPE" route="W2E" depart="108" />
    <vehicle id="left_59" type="SUMO_DEFAULT_TYPE" route="E2W" depart="109" />
    <vehicle id="rightLT_60" type="SUMO_DEFAULT_TYPE" route="W2N" depart="109"/>
    <vehicle id="down_61" type="SUMO_DEFAULT_TYPE" route="N2S" depart="110" color="1,0,0"/>
    <vehicle id="downLT_62" type="SUMO_DEFAULT_TYPE" route="E2S" depart="120" color="1,0,0"/>
    <vehicle id="up_63" type="SUMO_DEFAULT_TYPE" route="S2N" depart="121" color="1,0,0"/>
    <vehicle id="rightLT_64" type="SUMO_DEFAULT_TYPE" route="W2N" depart="122"/>
    <vehicle id="up_65" type="SUMO_DEFAULT_TYPE" route="S2N" depart="124" color="1,0,0"/>
    <vehicle id="down_66" type="SUMO_DEFAULT_TYPE" route="N2S" depart="127" color="1,0,0"/>
    <vehicle id="down_67" type="SUMO_DEFAULT_TYPE" route="N2S" depart="128" color="1,0,0"/>
    <vehicle id="left_68" type="SUMO_DEFAULT_TYPE" route="E2W" depart="129"/>
    <vehicle id="down_69" type="SUMO_DEFAULT_TYPE" route="N2S" depart="129" color="1,0,0"/>
    <vehicle id="left_70" type="SUMO_DEFAULT_TYPE" route="E2W" depart="131"/>
    <vehicle id="upLT_71" type="SUMO_DEFAULT_TYPE" route="S2W" depart="131" color="1,0,0"/>
    <vehicle id="leftLT_72" type="SUMO_DEFAULT_TYPE" route="N2E" depart="132"/>
    <vehicle id="right_73" type="SUMO_DEFAULT_TYPE" route="W2E" depart="133" />
    <vehicle id="up_74" type="SUMO_DEFAULT_TYPE" route="S2N" depart="136" color="1,0,0"/>
    <vehicle id="left_75" type="SUMO_DEFAULT_TYPE" route="E2W" depart="139"/>
    <vehicle id="left_76" type="SUMO_DEFAULT_TYPE" route="E2W" depart="141"/>
    <vehicle id="leftLT_77" type="SUMO_DEFAULT_TYPE" route="N2E" depart="141"/>
    <vehicle id="left_78" type="SUMO_DEFAULT_TYPE" route="E2W" depart="142"/>
    <vehicle id="up_79" type="SUMO_DEFAULT_TYPE" route="S2N" depart="142" color="1,0,0"/>
    <vehicle id="right_80" type="SUMO_DEFAULT_TYPE" route="W2E" depart="146" />
    <vehicle id="down_81" type="SUMO_DEFAULT_TYPE" route="N2S" depart="146" color="1,0,0"/>
    <vehicle id="downLT_82" type="SUMO_DEFAULT_TYPE" route="E2S" depart="146" color="1,0,0"/>
    <vehicle id="left_83" type="SUMO_DEFAULT_TYPE" route="E2W" depart="148" />
    <vehicle id="rightLT_84" type="SUMO_DEFAULT_TYPE" route="W2N" depart="157"/>
    <vehicle id="leftLT_85" type="SUMO_DEFAULT_TYPE" route="N2E" depart="157"/>
    <vehicle id="right_86" type="SUMO_DEFAULT_TYPE" route="W2E" depart="160" />
    <vehicle id="down_87" type="SUMO_DEFAULT_TYPE" route="N2S" depart="164" color="1,0,0"/>
    <vehicle id="up_88" type="SUMO_DEFAULT_TYPE" route="S2N" depart="164" color="1,0,0"/>
    <vehicle id="rightLT_89" type="SUMO_DEFAULT_TYPE" route="W2N" depart="164"/>
    <vehicle id="down_90" type="SUMO_DEFAULT_TYPE" route="N2S" depart="165" color="1,0,0"/>
    <vehicle id="up_91" type="SUMO_DEFAULT_TYPE" route="S2N" depart="166" color="1,0,0"/>
    <vehicle id="up_92" type="SUMO_DEFAULT_TYPE" route="S2N" depart="169" color="1,0,0"/>
    <vehicle id="right_93" type="SUMO_DEFAULT_TYPE" route="W2E" depart="170"/>
    <vehicle id="up_94" type="SUMO_DEFAULT_TYPE" route="S2N" depart="172" color="1,0,0"/>
    <vehicle id="upLT_95" type="SUMO_DEFAULT_TYPE" route="S2W" depart="173" color="1,0,0"/>
    <vehicle id="left_96" type="SUMO_DEFAULT_TYPE" route="E2W" depart="174"/>
    <vehicle id="left_97" type="SUMO_DEFAULT_TYPE" route="E2W" depart="175"/>
    <vehicle id="leftLT_98" type="SUMO_DEFAULT_TYPE" route="N2E" depart="175"/>
    <vehicle id="leftLT_99" type="SUMO_DEFAULT_TYPE" route="N2E" depart="178"/>
    <vehicle id="down_100" type="SUMO_DEFAULT_TYPE" route="N2S" depart="181" color="1,0,0"/>
    <vehicle id="up_101" type="SUMO_DEFAULT_TYPE" route="S2N" depart="181" color="1,0,0"/>
    <vehicle id="left_102" type="SUMO_DEFAULT_TYPE" route="E2W" depart="188"/>
    <vehicle id="down_103" type="SUMO_DEFAULT_TYPE" route="N2S" depart="188" color="1,0,0"/>
    <vehicle id="down_104" type="SUMO_DEFAULT_TYPE" route="N2S" depart="192" color="1,0,0"/>
    <vehicle id="upLT_105" type="SUMO_DEFAULT_TYPE" route="S2W" depart="192" color="1,0,0"/>
    <vehicle id="rightLT_106" type="SUMO_DEFAULT_TYPE" route="W2N" depart="194" />
    <vehicle id="down_107" type="SUMO_DEFAULT_TYPE" route="N2S" depart="195" color="1,0,0"/>
    <vehicle id="left_108" type="SUMO_DEFAULT_TYPE" route="E2W" depart="196" />
    <vehicle id="downLT_109" type="SUMO_DEFAULT_TYPE" route="E2S" depart="197" color="1,0,0"/>
    <vehicle id="left_110" type="SUMO_DEFAULT_TYPE" route="E2W" depart="200"/>
    <vehicle id="right_111" type="SUMO_DEFAULT_TYPE" route="W2E" depart="203" />
    <vehicle id="left_112" type="SUMO_DEFAULT_TYPE" route="E2W" depart="203" />
    <vehicle id="down_113" type="SUMO_DEFAULT_TYPE" route="N2S" depart="205" color="1,0,0"/>
    <vehicle id="right_114" type="SUMO_DEFAULT_TYPE" route="W2E" depart="206"/>
    <vehicle id="left_115" type="SUMO_DEFAULT_TYPE" route="E2W" depart="207"/>
    <vehicle id="upLT_116" type="SUMO_DEFAULT_TYPE" route="S2W" depart="207" color="1,0,0"/>
    <vehicle id="leftLT_117" type="SUMO_DEFAULT_TYPE" route="N2E" depart="210"/>
    <vehicle id="right_118" type="SUMO_DEFAULT_TYPE" route="W2E" depart="212"/>
    <vehicle id="left_119" type="SUMO_DEFAULT_TYPE" route="E2W" depart="215"/>
    <vehicle id="upLT_120" type="SUMO_DEFAULT_TYPE" route="S2W" depart="216" color="1,0,0"/>
    <vehicle id="down_121" type="SUMO_DEFAULT_TYPE" route="N2S" depart="217" color="1,0,0"/>
    <vehicle id="up_122" type="SUMO_DEFAULT_TYPE" route="S2N" depart="218" color="1,0,0"/>
    <vehicle id="down_123" type="SUMO_DEFAULT_TYPE" route="N2S" depart="221" color="1,0,0"/>
    <vehicle id="leftLT_124" type="SUMO_DEFAULT_TYPE" route="N2E" depart="223"/>
    <vehicle id="leftLT_125" type="SUMO_DEFAULT_TYPE" route="N2E" depart="225"/>
    <vehicle id="upLT_126" type="SUMO_DEFAULT_TYPE" route="S2W" depart="225" color="1,0,0"/>
    <vehicle id="right_127" type="SUMO_DEFAULT_TYPE" route="W2E" depart="231"/>
    <vehicle id="left_128" type="SUMO_DEFAULT_TYPE" route="E2W" depart="232"/>
    <vehicle id="right_129" type="SUMO_DEFAULT_TYPE" route="W2E" depart="233"/>
    <vehicle id="leftLT_130" type="SUMO_DEFAULT_TYPE" route="N2E" depart="234"/>
    <vehicle id="downLT_131" type="SUMO_DEFAULT_TYPE" route="E2S" depart="239" color="1,0,0"/>
    <vehicle id="rightLT_132" type="SUMO_DEFAULT_TYPE" route="W2N" depart="241"/>
    <vehicle id="left_133" type="SUMO_DEFAULT_TYPE" route="E2W" depart="242"/>
    <vehicle id="left_134" type="SUMO_DEFAULT_TYPE" route="E2W" depart="245"/>
    <vehicle id="down_135" type="SUMO_DEFAULT_TYPE" route="N2S" depart="245" color="1,0,0"/>
    <vehicle id="leftLT_136" type="SUMO_DEFAULT_TYPE" route="N2E" depart="247"/>
    <vehicle id="right_137" type="SUMO_DEFAULT_TYPE" route="W2E" depart="248"/>
    <vehicle id="right_138" type="SUMO_DEFAULT_TYPE" route="W2E" depart="250"/>
    <vehicle id="rightLT_139" type="SUMO_DEFAULT_TYPE" route="W2N" depart="250"/>
    <vehicle id="up_140" type="SUMO_DEFAULT_TYPE" route="S2N" depart="254" color="1,0,0"/>
    <vehicle id="down_141" type="SUMO_DEFAULT_TYPE" route="N2S" depart="256" color="1,0,0"/>
    <vehicle id="leftLT_142" type="SUMO_DEFAULT_TYPE" route="N2E" depart="256"/>
    <vehicle id="right_143" type="SUMO_DEFAULT_TYPE" route="W2E" depart="264"/>
    <vehicle id="right_144" type="SUMO_DEFAULT_TYPE" route="W2E" depart="265"/>
    <vehicle id="down_145" type="SUMO_DEFAULT_TYPE" route="N2S" depart="265" color="1,0,0"/>
    <vehicle id="downLT_146" type="SUMO_DEFAULT_TYPE" route="E2S" depart="265" color="1,0,0"/>
    <vehicle id="leftLT_147" type="SUMO_DEFAULT_TYPE" route="N2E" depart="268"/>
    <vehicle id="right_148" type="SUMO_DEFAULT_TYPE" route="W2E" depart="269"/>
    <vehicle id="left_149" type="SUMO_DEFAULT_TYPE" route="E2W" depart="269"/>
    <vehicle id="right_150" type="SUMO_DEFAULT_TYPE" route="W2E" depart="270"/>
    <vehicle id="down_151" type="SUMO_DEFAULT_TYPE" route="N2S" depart="270" color="1,0,0"/>
    <vehicle id="right_152" type="SUMO_DEFAULT_TYPE" route="W2E" depart="271"/>
    <vehicle id="rightLT_153" type="SUMO_DEFAULT_TYPE" route="W2N" depart="273"/>
    <vehicle id="left_154" type="SUMO_DEFAULT_TYPE" route="E2W" depart="275"/>
    <vehicle id="down_155" type="SUMO_DEFAULT_TYPE" route="N2S" depart="276" color="1,0,0"/>
    <vehicle id="rightLT_156" type="SUMO_DEFAULT_TYPE" route="W2N" depart="277"/>
    <vehicle id="leftLT_157" type="SUMO_DEFAULT_TYPE" route="N2E" depart="277"/>
    <vehicle id="left_158" type="SUMO_DEFAULT_TYPE" route="E2W" depart="278"/>
    <vehicle id="downLT_159" type="SUMO_DEFAULT_TYPE" route="E2S" depart="278" color="1,0,0"/>
    <vehicle id="right_160" type="SUMO_DEFAULT_TYPE" route="W2E" depart="279"/>
    <vehicle id="right_161" type="SUMO_DEFAULT_TYPE" route="W2E" depart="281"/>
    <vehicle id="down_162" type="SUMO_DEFAULT_TYPE" route="N2S" depart="282" color="1,0,0"/>
    <vehicle id="right_163" type="SUMO_DEFAULT_TYPE" route="W2E" depart="285"/>
    <vehicle id="down_164" type="SUMO_DEFAULT_TYPE" route="N2S" depart="291" color="1,0,0"/>
    <vehicle id="downLT_165" type="SUMO_DEFAULT_TYPE" route="E2S" depart="292" color="1,0,0"/>
    <vehicle id="down_166" type="SUMO_DEFAULT_TYPE" route="N2S" depart="293" color="1,0,0"/>
    <vehicle id="rightLT_167" type="SUMO_DEFAULT_TYPE" route="W2N" depart="293"/>
    <vehicle id="left_168" type="SUMO_DEFAULT_TYPE" route="E2W" depart="298"/>
    <vehicle id="rightLT_169" type="SUMO_DEFAULT_TYPE" route="W2N" depart="300"/>
    <vehicle id="right_170" type="SUMO_DEFAULT_TYPE" route="W2E" depart="301"/>
    <vehicle id="down_171" type="SUMO_DEFAULT_TYPE" route="N2S" depart="303" color="1,0,0"/>
    <vehicle id="leftLT_172" type="SUMO_DEFAULT_TYPE" route="N2E" depart="304"/>
    <vehicle id="down_173" type="SUMO_DEFAULT_TYPE" route="N2S" depart="305" color="1,0,0"/>
    <vehicle id="left_174" type="SUMO_DEFAULT_TYPE" route="E2W" depart="307"/>
    <vehicle id="up_175" type="SUMO_DEFAULT_TYPE" route="S2N" depart="309" color="1,0,0"/>
    <vehicle id="downLT_176" type="SUMO_DEFAULT_TYPE" route="E2S" depart="309" color="1,0,0"/>
    <vehicle id="left_177" type="SUMO_DEFAULT_TYPE" route="E2W" depart="311"/>
    <vehicle id="leftLT_178" type="SUMO_DEFAULT_TYPE" route="N2E" depart="313"/>
    <vehicle id="rightLT_179" type="SUMO_DEFAULT_TYPE" route="W2N" depart="314"/>
    <vehicle id="up_180" type="SUMO_DEFAULT_TYPE" route="S2N" depart="315" color="1,0,0"/>
    <vehicle id="right_181" type="SUMO_DEFAULT_TYPE" route="W2E" depart="317"/>
    <vehicle id="rightLT_182" type="SUMO_DEFAULT_TYPE" route="W2N" depart="317"/>
    <vehicle id="rightLT_183" type="SUMO_DEFAULT_TYPE" route="W2N" depart="319"/>
    <vehicle id="up_184" type="SUMO_DEFAULT_TYPE" route="S2N" depart="320" color="1,0,0"/>
    <vehicle id="right_185" type="SUMO_DEFAULT_TYPE" route="W2E" depart="324"/>
    <vehicle id="down_186" type="SUMO_DEFAULT_TYPE" route="N2S" depart="327" color="1,0,0"/>
    <vehicle id="leftLT_187" type="SUMO_DEFAULT_TYPE" route="N2E" depart="328"/>
    <vehicle id="leftLT_188" type="SUMO_DEFAULT_TYPE" route="N2E" depart="329"/>
    <vehicle id="right_189" type="SUMO_DEFAULT_TYPE" route="W2E" depart="330"/>
    <vehicle id="left_190" type="SUMO_DEFAULT_TYPE" route="E2W" depart="330"/>
    <vehicle id="right_191" type="SUMO_DEFAULT_TYPE" route="W2E" depart="331"/>
    <vehicle id="leftLT_192" type="SUMO_DEFAULT_TYPE" route="N2E" depart="332"/>
    <vehicle id="down_193" type="SUMO_DEFAULT_TYPE" route="N2S" depart="333" color="1,0,0"/>
    <vehicle id="upLT_194" type="SUMO_DEFAULT_TYPE" route="S2W" depart="335" color="1,0,0"/>
    <vehicle id="down_195" type="SUMO_DEFAULT_TYPE" route="N2S" depart="336" color="1,0,0"/>
    <vehicle id="leftLT_196" type="SUMO_DEFAULT_TYPE" route="N2E" depart="336"/>
    <vehicle id="rightLT_197" type="SUMO_DEFAULT_TYPE" route="W2N" depart="337"/>
    <vehicle id="left_198" type="SUMO_DEFAULT_TYPE" route="E2W" depart="338"/>
    <vehicle id="right_199" type="SUMO_DEFAULT_TYPE" route="W2E" depart="340"/>
    <vehicle id="left_200" type="SUMO_DEFAULT_TYPE" route="E2W" depart="340"/>
    <vehicle id="left_201" type="SUMO_DEFAULT_TYPE" route="E2W" depart="341"/>
    <vehicle id="upLT_202" type="SUMO_DEFAULT_TYPE" route="S2W" depart="341" color="1,0,0"/>
    <vehicle id="up_203" type="SUMO_DEFAULT_TYPE" route="S2N" depart="343" color="1,0,0"/>
    <vehicle id="up_204" type="SUMO_DEFAULT_TYPE" route="S2N" depart="344" color="1,0,0"/>
    <vehicle id="up_205" type="SUMO_DEFAULT_TYPE" route="S2N" depart="345" color="1,0,0"/>
    <vehicle id="left_206" type="SUMO_DEFAULT_TYPE" route="E2W" depart="347"/>
    <vehicle id="up_207" type="SUMO_DEFAULT_TYPE" route="S2N" depart="350" color="1,0,0"/>
    <vehicle id="upLT_208" type="SUMO_DEFAULT_TYPE" route="S2W" depart="350" color="1,0,0"/>
    <vehicle id="down_209" type="SUMO_DEFAULT_TYPE" route="N2S" depart="351" color="1,0,0"/>
    <vehicle id="right_210" type="SUMO_DEFAULT_TYPE" route="W2E" depart="353"/>
    <vehicle id="left_211" type="SUMO_DEFAULT_TYPE" route="E2W" depart="353"/>
    <vehicle id="rightLT_212" type="SUMO_DEFAULT_TYPE" route="W2N" depart="354"/>
    <vehicle id="right_213" type="SUMO_DEFAULT_TYPE" route="W2E" depart="355"/>
    <vehicle id="rightLT_214" type="SUMO_DEFAULT_TYPE" route="W2N" depart="355"/>
    <vehicle id="down_215" type="SUMO_DEFAULT_TYPE" route="N2S" depart="356" color="1,0,0"/>
    <vehicle id="left_216" type="SUMO_DEFAULT_TYPE" route="E2W" depart="357"/>
    <vehicle id="right_217" type="SUMO_DEFAULT_TYPE" route="W2E" depart="360"/>
    <vehicle id="right_218" type="SUMO_DEFAULT_TYPE" route="W2E" depart="362"/>
    <vehicle id="leftLT_219" type="SUMO_DEFAULT_TYPE" route="N2E" depart="363"/>
    <vehicle id="right_220" type="SUMO_DEFAULT_TYPE" route="W2E" depart="365"/>
    <vehicle id="left_221" type="SUMO_DEFAULT_TYPE" route="E2W" depart="365"/>
    <vehicle id="downLT_222" type="SUMO_DEFAULT_TYPE" route="E2S" depart="367" color="1,0,0"/>
    <vehicle id="right_223" type="SUMO_DEFAULT_TYPE" route="W2E" depart="368"/>
    <vehicle id="up_224" type="SUMO_DEFAULT_TYPE" route="S2N" depart="369" color="1,0,0"/>
    <vehicle id="up_225" type="SUMO_DEFAULT_TYPE" route="S2N" depart="373" color="1,0,0"/>
    <vehicle id="downLT_226" type="SUMO_DEFAULT_TYPE" route="E2S" depart="373" color="1,0,0"/>
    <vehicle id="rightLT_227" type="SUMO_DEFAULT_TYPE" route="W2N" depart="375"/>
    <vehicle id="down_228" type="SUMO_DEFAULT_TYPE" route="N2S" depart="376" color="1,0,0"/>
    <vehicle id="right_229" type="SUMO_DEFAULT_TYPE" route="W2E" depart="378"/>
    <vehicle id="left_230" type="SUMO_DEFAULT_TYPE" route="E2W" depart="379"/>
    <vehicle id="leftLT_231" type="SUMO_DEFAULT_TYPE" route="N2E" depart="386"/>
    <vehicle id="left_232" type="SUMO_DEFAULT_TYPE" route="E2W" depart="392"/>
    <vehicle id="leftLT_233" type="SUMO_DEFAULT_TYPE" route="N2E" depart="392"/>
    <vehicle id="right_234" type="SUMO_DEFAULT_TYPE" route="W2E" depart="393"/>
    <vehicle id="rightLT_235" type="SUMO_DEFAULT_TYPE" route="W2N" depart="394"/>
    <vehicle id="down_236" type="SUMO_DEFAULT_TYPE" route="N2S" depart="396" color="1,0,0"/>
    <vehicle id="upLT_237" type="SUMO_DEFAULT_TYPE" route="S2W" depart="397" color="1,0,0"/>
    <vehicle id="down_238" type="SUMO_DEFAULT_TYPE" route="N2S" depart="398" color="1,0,0"/>
    <vehicle id="upLT_239" type="SUMO_DEFAULT_TYPE" route="S2W" depart="400" color="1,0,0"/>
    <vehicle id="up_240" type="SUMO_DEFAULT_TYPE" route="S2N" depart="401" color="1,0,0"/>
    <vehicle id="left_241" type="SUMO_DEFAULT_TYPE" route="E2W" depart="403"/>
    <vehicle id="left_242" type="SUMO_DEFAULT_TYPE" route="E2W" depart="404"/>
    <vehicle id="right_243" type="SUMO_DEFAULT_TYPE" route="W2E" depart="407"/>
    <vehicle id="right_244" type="SUMO_DEFAULT_TYPE" route="W2E" depart="409"/>
    <vehicle id="down_245" type="SUMO_DEFAULT_TYPE" route="N2S" depart="412" color="1,0,0"/>
    <vehicle id="left_246" type="SUMO_DEFAULT_TYPE" route="E2W" depart="414"/>
    <vehicle id="down_247" type="SUMO_DEFAULT_TYPE" route="N2S" depart="414" color="1,0,0"/>
    <vehicle id="rightLT_248" type="SUMO_DEFAULT_TYPE" route="W2N" depart="414"/>
    <vehicle id="left_249" type="SUMO_DEFAULT_TYPE" route="E2W" depart="416"/>
    <vehicle id="left_250" type="SUMO_DEFAULT_TYPE" route="E2W" depart="419"/>
    <vehicle id="leftLT_251" type="SUMO_DEFAULT_TYPE" route="N2E" depart="420"/>
    <vehicle id="left_252" type="SUMO_DEFAULT_TYPE" route="E2W" depart="421"/>
    <vehicle id="up_253" type="SUMO_DEFAULT_TYPE" route="S2N" depart="423" color="1,0,0"/>
    <vehicle id="left_254" type="SUMO_DEFAULT_TYPE" route="E2W" depart="425"/>
    <vehicle id="downLT_255" type="SUMO_DEFAULT_TYPE" route="E2S" depart="425" color="1,0,0"/>
    <vehicle id="rightLT_256" type="SUMO_DEFAULT_TYPE" route="W2N" depart="426"/>
    <vehicle id="leftLT_257" type="SUMO_DEFAULT_TYPE" route="N2E" depart="427"/>
    <vehicle id="downLT_258" type="SUMO_DEFAULT_TYPE" route="E2S" depart="428" color="1,0,0"/>
    <vehicle id="left_259" type="SUMO_DEFAULT_TYPE" route="E2W" depart="429"/>
    <vehicle id="up_260" type="SUMO_DEFAULT_TYPE" route="S2N" depart="430" color="1,0,0"/>
    <vehicle id="left_261" type="SUMO_DEFAULT_TYPE" route="E2W" depart="431"/>
    <vehicle id="leftLT_262" type="SUMO_DEFAULT_TYPE" route="N2E" depart="432"/>
    <vehicle id="leftLT_263" type="SUMO_DEFAULT_TYPE" route="N2E" depart="433"/>
    <vehicle id="up_264" type="SUMO_DEFAULT_TYPE" route="S2N" depart="436" color="1,0,0"/>
    <vehicle id="left_265" type="SUMO_DEFAULT_TYPE" route="E2W" depart="437"/>
    <vehicle id="leftLT_266" type="SUMO_DEFAULT_TYPE" route="N2E" depart="437"/>
    <vehicle id="down_267" type="SUMO_DEFAULT_TYPE" route="N2S" depart="439" color="1,0,0"/>
    <vehicle id="downLT_268" type="SUMO_DEFAULT_TYPE" route="E2S" depart="439" color="1,0,0"/>
    <vehicle id="up_269" type="SUMO_DEFAULT_TYPE" route="S2N" depart="440" color="1,0,0"/>
    <vehicle id="upLT_270" type="SUMO_DEFAULT_TYPE" route="S2W" depart="440" color="1,0,0"/>
    <vehicle id="left_271" type="SUMO_DEFAULT_TYPE" route="E2W" depart="442"/>
    <vehicle id="down_272" type="SUMO_DEFAULT_TYPE" route="N2S" depart="443" color="1,0,0"/>
    <vehicle id="down_273" type="SUMO_DEFAULT_TYPE" route="N2S" depart="447" color="1,0,0"/>
    <vehicle id="right_274" type="SUMO_DEFAULT_TYPE" route="W2E" depart="453"/>
    <vehicle id="left_275" type="SUMO_DEFAULT_TYPE" route="E2W" depart="453"/>
    <vehicle id="upLT_276" type="SUMO_DEFAULT_TYPE" route="S2W" depart="456" color="1,0,0"/>
    <vehicle id="downLT_277" type="SUMO_DEFAULT_TYPE" route="E2S" depart="460" color="1,0,0"/>
    <vehicle id="right_278" type="SUMO_DEFAULT_TYPE" route="W2E" depart="462"/>
    <vehicle id="left_279" type="SUMO_DEFAULT_TYPE" route="E2W" depart="462"/>
    <vehicle id="right_280" type="SUMO_DEFAULT_TYPE" route="W2E" depart="464"/>
    <vehicle id="up_281" type="SUMO_DEFAULT_TYPE" route="S2N" depart="467" color="1,0,0"/>
    <vehicle id="leftLT_282" type="SUMO_DEFAULT_TYPE" route="N2E" depart="469"/>
    <vehicle id="down_283" type="SUMO_DEFAULT_TYPE" route="N2S" depart="470" color="1,0,0"/>
    <vehicle id="downLT_284" type="SUMO_DEFAULT_TYPE" route="E2S" depart="470" color="1,0,0"/>
    <vehicle id="down_285" type="SUMO_DEFAULT_TYPE" route="N2S" depart="473" color="1,0,0"/>
    <vehicle id="left_286" type="SUMO_DEFAULT_TYPE" route="E2W" depart="475"/>
    <vehicle id="right_287" type="SUMO_DEFAULT_TYPE" route="W2E" depart="477"/>
    <vehicle id="left_288" type="SUMO_DEFAULT_TYPE" route="E2W" depart="478"/>
    <vehicle id="right_289" type="SUMO_DEFAULT_TYPE" route="W2E" depart="479"/>
    <vehicle id="rightLT_290" type="SUMO_DEFAULT_TYPE" route="W2N" depart="480"/>
    <vehicle id="down_291" type="SUMO_DEFAULT_TYPE" route="N2S" depart="481" color="1,0,0"/>
    <vehicle id="left_292" type="SUMO_DEFAULT_TYPE" route="E2W" depart="482"/>
    <vehicle id="down_293" type="SUMO_DEFAULT_TYPE" route="N2S" depart="483" color="1,0,0"/>
    <vehicle id="up_294" type="SUMO_DEFAULT_TYPE" route="S2N" depart="483" color="1,0,0"/>
    <vehicle id="leftLT_295" type="SUMO_DEFAULT_TYPE" route="N2E" depart="483"/>
    <vehicle id="down_296" type="SUMO_DEFAULT_TYPE" route="N2S" depart="488" color="1,0,0"/>
    <vehicle id="left_297" type="SUMO_DEFAULT_TYPE" route="E2W" depart="490"/>
    <vehicle id="right_298" type="SUMO_DEFAULT_TYPE" route="W2E" depart="492"/>
    <vehicle id="down_299" type="SUMO_DEFAULT_TYPE" route="N2S" depart="492" color="1,0,0"/>
    <vehicle id="right_300" type="SUMO_DEFAULT_TYPE" route="W2E" depart="493"/>
    <vehicle id="left_301" type="SUMO_DEFAULT_TYPE" route="E2W" depart="494"/>
    <vehicle id="down_302" type="SUMO_DEFAULT_TYPE" route="N2S" depart="494" color="1,0,0"/>
    <vehicle id="downLT_303" type="SUMO_DEFAULT_TYPE" route="E2S" depart="495" color="1,0,0"/>
    <vehicle id="left_304" type="SUMO_DEFAULT_TYPE" route="E2W" depart="496"/>
    <vehicle id="down_305" type="SUMO_DEFAULT_TYPE" route="N2S" depart="496" color="1,0,0"/>
    <vehicle id="down_306" type="SUMO_DEFAULT_TYPE" route="N2S" depart="500" color="1,0,0"/>
    <vehicle id="down_307" type="SUMO_DEFAULT_TYPE" route="N2S" depart="501" color="1,0,0"/>
    <vehicle id="rightLT_308" type="SUMO_DEFAULT_TYPE" route="W2N" depart="502"/>
    <vehicle id="left_309" type="SUMO_DEFAULT_TYPE" route="E2W" depart="504"/>
    <vehicle id="upLT_310" type="SUMO_DEFAULT_TYPE" route="S2W" depart="508" color="1,0,0"/>
    <vehicle id="right_311" type="SUMO_DEFAULT_TYPE" route="W2E" depart="509"/>
    <vehicle id="left_312" type="SUMO_DEFAULT_TYPE" route="E2W" depart="509"/>
    <vehicle id="rightLT_313" type="SUMO_DEFAULT_TYPE" route="W2N" depart="509"/>
    <vehicle id="upLT_314" type="SUMO_DEFAULT_TYPE" route="S2W" depart="509" color="1,0,0"/>
    <vehicle id="downLT_315" type="SUMO_DEFAULT_TYPE" route="E2S" depart="511" color="1,0,0"/>
    <vehicle id="up_316" type="SUMO_DEFAULT_TYPE" route="S2N" depart="512" color="1,0,0"/>
    <vehicle id="leftLT_317" type="SUMO_DEFAULT_TYPE" route="N2E" depart="512"/>
    <vehicle id="down_318" type="SUMO_DEFAULT_TYPE" route="N2S" depart="515" color="1,0,0"/>
    <vehicle id="downLT_319" type="SUMO_DEFAULT_TYPE" route="E2S" depart="517" color="1,0,0"/>
    <vehicle id="right_320" type="SUMO_DEFAULT_TYPE" route="W2E" depart="519"/>
    <vehicle id="upLT_321" type="SUMO_DEFAULT_TYPE" route="S2W" depart="522" color="1,0,0"/>
    <vehicle id="rightLT_322" type="SUMO_DEFAULT_TYPE" route="W2N" depart="524"/>
    <vehicle id="up_323" type="SUMO_DEFAULT_TYPE" route="S2N" depart="525" color="1,0,0"/>
    <vehicle id="right_324" type="SUMO_DEFAULT_TYPE" route="W2E" depart="526"/>
    <vehicle id="down_325" type="SUMO_DEFAULT_TYPE" route="N2S" depart="528" color="1,0,0"/>
    <vehicle id="down_326" type="SUMO_DEFAULT_TYPE" route="N2S" depart="529" color="1,0,0"/>
    <vehicle id="down_327" type="SUMO_DEFAULT_TYPE" route="N2S" depart="531" color="1,0,0"/>
    <vehicle id="leftLT_328" type="SUMO_DEFAULT_TYPE" route="N2E" depart="534"/>
    <vehicle id="leftLT_329" type="SUMO_DEFAULT_TYPE" route="N2E" depart="535"/>
    <vehicle id="up_330" type="SUMO_DEFAULT_TYPE" route="S2N" depart="537" color="1,0,0"/>
    <vehicle id="right_331" type="SUMO_DEFAULT_TYPE" route="W2E" depart="538"/>
    <vehicle id="downLT_332" type="SUMO_DEFAULT_TYPE" route="E2S" depart="538" color="1,0,0"/>
    <vehicle id="up_333" type="SUMO_DEFAULT_TYPE" route="S2N" depart="539" color="1,0,0"/>
    <vehicle id="down_334" type="SUMO_DEFAULT_TYPE" route="N2S" depart="540" color="1,0,0"/>
    <vehicle id="rightLT_335" type="SUMO_DEFAULT_TYPE" route="W2N" depart="540"/>
    <vehicle id="downLT_336" type="SUMO_DEFAULT_TYPE" route="E2S" depart="543" color="1,0,0"/>
    <vehicle id="up_337" type="SUMO_DEFAULT_TYPE" route="S2N" depart="544" color="1,0,0"/>
    <vehicle id="right_338" type="SUMO_DEFAULT_TYPE" route="W2E" depart="546"/>
    <vehicle id="down_339" type="SUMO_DEFAULT_TYPE" route="N2S" depart="549" color="1,0,0"/>
    <vehicle id="left_340" type="SUMO_DEFAULT_TYPE" route="E2W" depart="553"/>
    <vehicle id="left_341" type="SUMO_DEFAULT_TYPE" route="E2W" depart="556"/>
    <vehicle id="up_342" type="SUMO_DEFAULT_TYPE" route="S2N" depart="556" color="1,0,0"/>
    <vehicle id="down_343" type="SUMO_DEFAULT_TYPE" route="N2S" depart="557" color="1,0,0"/>